         NASA-GLENN CHEMICAL EQUILIBRIUM PROGRAM CEA2, FEBRUARY 5, 2004
                   BY  BONNIE MCBRIDE AND SANFORD GORDON
      REFS: NASA RP-1311, PART I, 1994 AND NASA RP-1311, PART II, 1996

 *******************************************************************************

  
 ### CEA analysis performed on Tue 07-Jun-2022 17:22:09
  
 # Problem Type: "Rocket" (Infinite Area Combustor)
  
 prob case=M51-0__________1290 ro equilibrium
  
 # Pressure (9 values):
 p,psia= 200, 225, 250, 275, 300, 325, 350, 375, 400
  
 # Oxidizer/Fuel Wt. ratio (5 values):
 o/f= 6, 7, 8, 9, 10
  
 # You selected the following fuels and oxidizers:
 reac
 fuel paraffin          wt%=100.0000  t,k= 300.000
 oxid N2O               wt%=100.0000  t,k= 300.000
  
 # You selected these options for output:
 # long version of output
 # Proportions of any products will be expressed as Mass Fractions.
 output massf
 # Heat will be expressed as calories
 output calories
  
 # Input prepared by this script:/var/www/sites/cearun.grc.nasa.gov/cgi-bin/CEARU
 N/prepareInputFile.cgi
  
 ### IMPORTANT:  The following line is the end of your CEA input file!
 end

 OPTIONS: TP=F  HP=F  SP=F  TV=F  UV=F  SV=F  DETN=F  SHOCK=F  REFL=F  INCD=F
 RKT=T  FROZ=F  EQL=T  IONS=F  SIUNIT=F  DEBUGF=F  SHKDBG=F  DETDBG=F  TRNSPT=F

 TRACE= 0.00E+00  S/R= 0.000000E+00  H/R= 0.000000E+00  U/R= 0.000000E+00

 Pc,BAR =    13.789461    15.513144    17.236826    18.960509    20.684191    22.407874    24.131557

 Pc,BAR =    25.855239    27.578922

 Pc/P =

 SUBSONIC AREA RATIOS =

 SUPERSONIC AREA RATIOS =

 NFZ=  1  Mdot/Ac= 0.000000E+00  Ac/At= 0.000000E+00

 NOTE! REACTANT paraffin       HAS BEEN DEFINED FOR TEMPERATURE  298.15K ONLY.
 YOUR TEMPERATURE ASSIGNMENT  300.00 IS NOT = BUT &lt;10 K FROM THIS VALUE. (REACT)

    REACTANT          WT.FRAC   (ENERGY/R),K   TEMP,K  DENSITY
        EXPLODED FORMULA
 F: paraffin         1.000000  -0.223777E+06   298.15  0.0000
          C 73.00000  H ********
 O: N2O              1.000000   0.987701E+04   300.00  0.0000
          N  2.00000  O  1.00000

  SPECIES BEING CONSIDERED IN THIS SYSTEM
 (CONDENSED PHASE MAY HAVE NAME LISTED SEVERAL TIMES)
  LAST thermo.inp UPDATE:    9/09/04

  g 7/97  *C               tpis79  *CH              g 4/02  CH2            
  g 4/02  CH3              g11/00  CH2OH            g 7/00  CH3O           
  g 8/99  CH4              g 7/00  CH3OH            srd 01  CH3OOH         
  g 8/99  *CN              g12/99  CNN              tpis79  *CO            
  g 9/99  *CO2             tpis91  COOH             tpis91  *C2            
  g 6/01  C2H              g 1/91  C2H2,acetylene   g 5/01  C2H2,vinylidene
  g 4/02  CH2CO,ketene     g 3/02  O(CH)2O          srd 01  HO(CO)2OH      
  g 7/01  C2H3,vinyl       g 9/00  CH3CN            g 6/96  CH3CO,acetyl   
  g 1/00  C2H4             g 8/88  C2H4O,ethylen-o  g 8/88  CH3CHO,ethanal 
  g 6/00  CH3COOH          srd 01  OHCH2COOH        g 7/00  C2H5           
  g 7/00  C2H6             g 8/88  CH3N2CH3         g 8/88  C2H5OH         
  g 7/00  CH3OCH3          srd 01  CH3O2CH3         g 7/00  CCN            
  tpis91  CNC              srd 01  OCCN             tpis79  C2N2           
  g 8/00  C2O              tpis79  *C3              n 4/98  C3H3,1-propynl 
  n 4/98  C3H3,2-propynl   g 2/00  C3H4,allene      g 1/00  C3H4,propyne   
  g 5/90  C3H4,cyclo-      g 3/01  C3H5,allyl       g 2/00  C3H6,propylene 
  g 1/00  C3H6,cyclo-      g 6/01  C3H6O,propylox   g 6/97  C3H6O,acetone  
  g 1/02  C3H6O,propanal   g 7/01  C3H7,n-propyl    g 9/85  C3H7,i-propyl  
  g 2/00  C3H8             g 2/00  C3H8O,1propanol  g 2/00  C3H8O,2propanol
  srd 01  CNCOCN           g 7/88  C3O2             g tpis  *C4            
  g 7/01  C4H2,butadiyne   g 8/00  C4H4,1,3-cyclo-  n10/92  C4H6,butadiene 
  n10/93  C4H6,1butyne     n10/93  C4H6,2butyne     g 8/00  C4H6,cyclo-    
  n 4/88  C4H8,1-butene    n 4/88  C4H8,cis2-buten  n 4/88  C4H8,tr2-butene
  n 4/88  C4H8,isobutene   g 8/00  C4H8,cyclo-      g10/00  (CH3COOH)2     
  n10/84  C4H9,n-butyl     n10/84  C4H9,i-butyl     g 1/93  C4H9,s-butyl   
  g 1/93  C4H9,t-butyl     g12/00  C4H10,n-butane   g 8/00  C4H10,isobutane
  g 6/01  C4N2             g 8/00  *C5              g 5/90  C5H6,1,3cyclo- 
  g 1/93  C5H8,cyclo-      n 4/87  C5H10,1-pentene  g 2/01  C5H10,cyclo-   
  n10/84  C5H11,pentyl     g 1/93  C5H11,t-pentyl   n10/85  C5H12,n-pentane
  n10/85  C5H12,i-pentane  n10/85  CH3C(CH3)2CH3    g 2/93  C6H2           
  g11/00  C6H5,phenyl      g 8/00  C6H5O,phenoxy    g 8/00  C6H6           
  g 8/00  C6H5OH,phenol    g 1/93  C6H10,cyclo-     n 4/87  C6H12,1-hexene 
  g 6/90  C6H12,cyclo-     n10/83  C6H13,n-hexyl    g 6/01  C6H14,n-hexane 
  g 7/01  C7H7,benzyl      g 1/93  C7H8             g12/00  C7H8O,cresol-mx
  n 4/87  C7H14,1-heptene  n10/83  C7H15,n-heptyl   n10/85  C7H16,n-heptane
  n10/85  C7H16,2-methylh  n 4/89  C8H8,styrene     n10/86  C8H10,ethylbenz
  n 4/87  C8H16,1-octene   n10/83  C8H17,n-octyl    n 4/85  C8H18,n-octane 
  n 4/85  C8H18,isooctane  n10/83  C9H19,n-nonyl    g 3/01  C10H8,naphthale
  n10/83  C10H21,n-decyl   G12/12  C11H21           g 8/00  C12H9,o-bipheny
  g 8/00  C12H10,biphenyl  g 6/97  *H               g 6/01  HCN            
  g 1/01  HCO              tpis89  HCCN             g 6/01  HCCO           
  g 6/01  HNC              g 7/00  HNCO             g10/01  HNO            
  tpis89  HNO2             g 5/99  HNO3             g 4/02  HO2            
  tpis78  *H2              g 5/01  HCHO,formaldehy  g 6/01  HCOOH          
  g 8/89  H2O              g 6/99  H2O2             g 6/01  (HCOOH)2       
  g 5/97  *N               g 6/01  NCO              g 4/99  *NH            
  g 3/01  NH2              tpis89  NH3              tpis89  NH2OH          
  tpis89  *NO              g 4/99  NO2              j12/64  NO3            
  tpis78  *N2              J12/64  N2O              g 6/01  NCN            
  g 5/99  N2H2             tpis89  NH2NO2           g 4/99  N2H4           
  g 4/99  N2O3             tpis89  N2O4             g 4/99  N2O5           
  tpis89  N3               g 4/99  N3H              g 5/97  *O             
  g 4/02  *OH              tpis89  *O2              g 8/01  O3             
  g 12/0  THDCPD,endo      g 12/0  THDCPD,exo       g11/99  N2H4(L)        
  n 4/83  C(gr)            n 4/83  C(gr)            n 4/83  C(gr)          
  n12/84  CH3OH(L)         n12/84  C2H5OH(L)        n 4/85  C6H14(L),n-hexa
  n12/88  C6H5NH2(L)       n10/86  C6H6(L)          g11/99  H2O(cr)        
  g 8/01  H2O(L)           g 8/01  H2O(L)         

 O/F =   6.000000

                       EFFECTIVE FUEL     EFFECTIVE OXIDANT        MIXTURE
 ENTHALPY                  h(2)/R              h(1)/R               h0/R
 (KG-MOL)(K)/KG       -0.22338305E+03      0.22441221E+03      0.16044145E+03

 KG-FORM.WT./KG             bi(2)               bi(1)               b0i
  *C                   0.72871334E-01      0.00000000E+00      0.10410191E-01
  *H                   0.12378144E+00      0.00000000E+00      0.17683063E-01
  *N                   0.00000000E+00      0.45441326E-01      0.38949708E-01
  *O                   0.00000000E+00      0.22720663E-01      0.19474854E-01

 POINT ITN      T            C           H           N           O 

 Pinf/Pt = 1.749879
 Pinf/Pt = 1.756543
 Pinf/Pt = 1.756608

              THEORETICAL ROCKET PERFORMANCE ASSUMING EQUILIBRIUM

           COMPOSITION DURING EXPANSION FROM INFINITE AREA COMBUSTOR

 Pin =   200.0 PSIA
 CASE = M51-0__________

             REACTANT                    WT FRACTION      ENERGY      TEMP
                                          (SEE NOTE)      CAL/MOL       K  
 FUEL        paraffin                     1.0000000   -444694.073    298.150
 OXIDANT     N2O                          1.0000000     19627.747    300.000

 O/F=    6.00000  %FUEL= 14.285714  R,EQ.RATIO= 1.523088  PHI,EQ.RATIO= 1.523088

                 CHAMBER   THROAT
 Pinf/P            1.0000   1.7566
 P, ATM            13.609   7.7474
 T, K             3180.10  2960.31
 RHO, G/CC       1.3137-3 8.1120-4
 H, CAL/G          318.83   183.04
 U, CAL/G          67.949  -48.249
 G, CAL/G        -7582.14 -7171.85
 S, CAL/(G)(K)     2.4845   2.4845

 M, (1/n)          25.189   25.435
 (dLV/dLP)t      -1.01332 -1.00823
 (dLV/dLT)p        1.2653   1.1758
 Cp, CAL/(G)(K)    0.8170   0.6897
 GAMMAs            1.1645   1.1742
 SON VEL,M/SEC     1105.6   1066.0
 MACH NUMBER        0.000    1.000

 PERFORMANCE PARAMETERS

 Ae/At                      1.0000
 CSTAR, FT/SEC              5231.8
 CF                         0.6685
 Ivac,LB-SEC/LB              201.3
 Isp, LB-SEC/LB              108.7

 MASS FRACTIONS

 *CO              0.22666  0.22058
 *CO2             0.10202  0.11157
 *H               0.00073  0.00050
 HO2              0.00001  0.00000
 *H2              0.00510  0.00504
 H2O              0.10130  0.10612
 *NO              0.00569  0.00305
 *N2              0.54289  0.54413
 *O               0.00164  0.00073
 *OH              0.01109  0.00692
 *O2              0.00286  0.00136

  * THERMODYNAMIC PROPERTIES FITTED TO 20000.K

    PRODUCTS WHICH WERE CONSIDERED BUT WHOSE MASS FRACTIONS
    WERE LESS THAN 5.000000E-06 FOR ALL ASSIGNED CONDITIONS

 *C              *CH             CH2             CH3             CH2OH          
 CH3O            CH4             CH3OH           CH3OOH          *CN            
 CNN             COOH            *C2             C2H             C2H2,acetylene 
 C2H2,vinylidene CH2CO,ketene    O(CH)2O         HO(CO)2OH       C2H3,vinyl     
 CH3CN           CH3CO,acetyl    C2H4            C2H4O,ethylen-o CH3CHO,ethanal 
 CH3COOH         OHCH2COOH       C2H5            C2H6            CH3N2CH3       
 C2H5OH          CH3OCH3         CH3O2CH3        CCN             CNC            
 OCCN            C2N2            C2O             *C3             C3H3,1-propynl 
 C3H3,2-propynl  C3H4,allene     C3H4,propyne    C3H4,cyclo-     C3H5,allyl     
 C3H6,propylene  C3H6,cyclo-     C3H6O,propylox  C3H6O,acetone   C3H6O,propanal 
 C3H7,n-propyl   C3H7,i-propyl   C3H8            C3H8O,1propanol C3H8O,2propanol
 CNCOCN          C3O2            *C4             C4H2,butadiyne  C4H4,1,3-cyclo-
 C4H6,butadiene  C4H6,1butyne    C4H6,2butyne    C4H6,cyclo-     C4H8,1-butene  
 C4H8,cis2-buten C4H8,tr2-butene C4H8,isobutene  C4H8,cyclo-     (CH3COOH)2     
 C4H9,n-butyl    C4H9,i-butyl    C4H9,s-butyl    C4H9,t-butyl    C4H10,n-butane 
 C4H10,isobutane C4N2            *C5             C5H6,1,3cyclo-  C5H8,cyclo-    
 C5H10,1-pentene C5H10,cyclo-    C5H11,pentyl    C5H11,t-pentyl  C5H12,n-pentane
 C5H12,i-pentane CH3C(CH3)2CH3   C6H2            C6H5,phenyl     C6H5O,phenoxy  
 C6H6            C6H5OH,phenol   C6H10,cyclo-    C6H12,1-hexene  C6H12,cyclo-   
 C6H13,n-hexyl   C6H14,n-hexane  C7H7,benzyl     C7H8            C7H8O,cresol-mx
 C7H14,1-heptene C7H15,n-heptyl  C7H16,n-heptane C7H16,2-methylh C8H8,styrene   
 C8H10,ethylbenz C8H16,1-octene  C8H17,n-octyl   C8H18,n-octane  C8H18,isooctane
 C9H19,n-nonyl   C10H8,naphthale C10H21,n-decyl  C11H21          C12H9,o-bipheny
 C12H10,biphenyl HCN             HCO             HCCN            HCCO           
 HNC             HNCO            HNO             HNO2            HNO3           
 HCHO,formaldehy HCOOH           H2O2            (HCOOH)2        *N             
 NCO             *NH             NH2             NH3             NH2OH          
 NO2             NO3             N2O             NCN             N2H2           
 NH2NO2          N2H4            N2O3            N2O4            N2O5           
 N3              N3H             O3              THDCPD,endo     THDCPD,exo     
 N2H4(L)         C(gr)           CH3OH(L)        C2H5OH(L)       C6H14(L),n-hexa
 C6H5NH2(L)      C6H6(L)         H2O(cr)         H2O(L)         

 NOTE. WEIGHT FRACTION OF FUEL IN TOTAL FUELS AND OF OXIDANT IN TOTAL OXIDANTS

 POINT ITN      T            C           H           N           O 

 Pinf/Pt = 1.750696
 Pinf/Pt = 1.757585
 Pinf/Pt = 1.757653

              THEORETICAL ROCKET PERFORMANCE ASSUMING EQUILIBRIUM

           COMPOSITION DURING EXPANSION FROM INFINITE AREA COMBUSTOR

 Pin =   225.0 PSIA
 CASE = M51-0__________

             REACTANT                    WT FRACTION      ENERGY      TEMP
                                          (SEE NOTE)      CAL/MOL       K  
 FUEL        paraffin                     1.0000000   -444694.073    298.150
 OXIDANT     N2O                          1.0000000     19627.747    300.000

 O/F=    6.00000  %FUEL= 14.285714  R,EQ.RATIO= 1.523088  PHI,EQ.RATIO= 1.523088

                 CHAMBER   THROAT
 Pinf/P            1.0000   1.7577
 P, ATM            15.310   8.7106
 T, K             3189.64  2966.55
 RHO, G/CC       1.4746-3 9.1067-4
 H, CAL/G          318.83   182.64
 U, CAL/G          67.388  -49.003
 G, CAL/G        -7576.21 -7160.22
 S, CAL/(G)(K)     2.4752   2.4752

 M, (1/n)          25.208   25.450
 (dLV/dLP)t      -1.01291 -1.00790
 (dLV/dLT)p        1.2567   1.1686
 Cp, CAL/(G)(K)    0.8023   0.6770
 GAMMAs            1.1658   1.1759
 SON VEL,M/SEC     1107.5   1067.6
 MACH NUMBER        0.000    1.000

 PERFORMANCE PARAMETERS

 Ae/At                     1.00000
 CSTAR, FT/SEC              5235.2
 CF                         0.6690
 Ivac,LB-SEC/LB              201.4
 Isp, LB-SEC/LB              108.9

 MASS FRACTIONS

 *CO              0.22646  0.22044
 *CO2             0.10232  0.11178
 *H               0.00070  0.00048
 HO2              0.00001  0.00000
 *H2              0.00510  0.00503
 H2O              0.10173  0.10645
 *NO              0.00561  0.00297
 *N2              0.54293  0.54417
 *O               0.00156  0.00068
 *OH              0.01085  0.00671
 *O2              0.00272  0.00127

  * THERMODYNAMIC PROPERTIES FITTED TO 20000.K

    PRODUCTS WHICH WERE CONSIDERED BUT WHOSE MASS FRACTIONS
    WERE LESS THAN 5.000000E-06 FOR ALL ASSIGNED CONDITIONS

 *C              *CH             CH2             CH3             CH2OH          
 CH3O            CH4             CH3OH           CH3OOH          *CN            
 CNN             COOH            *C2             C2H             C2H2,acetylene 
 C2H2,vinylidene CH2CO,ketene    O(CH)2O         HO(CO)2OH       C2H3,vinyl     
 CH3CN           CH3CO,acetyl    C2H4            C2H4O,ethylen-o CH3CHO,ethanal 
 CH3COOH         OHCH2COOH       C2H5            C2H6            CH3N2CH3       
 C2H5OH          CH3OCH3         CH3O2CH3        CCN             CNC            
 OCCN            C2N2            C2O             *C3             C3H3,1-propynl 
 C3H3,2-propynl  C3H4,allene     C3H4,propyne    C3H4,cyclo-     C3H5,allyl     
 C3H6,propylene  C3H6,cyclo-     C3H6O,propylox  C3H6O,acetone   C3H6O,propanal 
 C3H7,n-propyl   C3H7,i-propyl   C3H8            C3H8O,1propanol C3H8O,2propanol
 CNCOCN          C3O2            *C4             C4H2,butadiyne  C4H4,1,3-cyclo-
 C4H6,butadiene  C4H6,1butyne    C4H6,2butyne    C4H6,cyclo-     C4H8,1-butene  
 C4H8,cis2-buten C4H8,tr2-butene C4H8,isobutene  C4H8,cyclo-     (CH3COOH)2     
 C4H9,n-butyl    C4H9,i-butyl    C4H9,s-butyl    C4H9,t-butyl    C4H10,n-butane 
 C4H10,isobutane C4N2            *C5             C5H6,1,3cyclo-  C5H8,cyclo-    
 C5H10,1-pentene C5H10,cyclo-    C5H11,pentyl    C5H11,t-pentyl  C5H12,n-pentane
 C5H12,i-pentane CH3C(CH3)2CH3   C6H2            C6H5,phenyl     C6H5O,phenoxy  
 C6H6            C6H5OH,phenol   C6H10,cyclo-    C6H12,1-hexene  C6H12,cyclo-   
 C6H13,n-hexyl   C6H14,n-hexane  C7H7,benzyl     C7H8            C7H8O,cresol-mx
 C7H14,1-heptene C7H15,n-heptyl  C7H16,n-heptane C7H16,2-methylh C8H8,styrene   
 C8H10,ethylbenz C8H16,1-octene  C8H17,n-octyl   C8H18,n-octane  C8H18,isooctane
 C9H19,n-nonyl   C10H8,naphthale C10H21,n-decyl  C11H21          C12H9,o-bipheny
 C12H10,biphenyl HCN             HCO             HCCN            HCCO           
 HNC             HNCO            HNO             HNO2            HNO3           
 HCHO,formaldehy HCOOH           H2O2            (HCOOH)2        *N             
 NCO             *NH             NH2             NH3             NH2OH          
 NO2             NO3             N2O             NCN             N2H2           
 NH2NO2          N2H4            N2O3            N2O4            N2O5           
 N3              N3H             O3              THDCPD,endo     THDCPD,exo     
 N2H4(L)         C(gr)           CH3OH(L)        C2H5OH(L)       C6H14(L),n-hexa
 C6H5NH2(L)      C6H6(L)         H2O(cr)         H2O(L)         

 NOTE. WEIGHT FRACTION OF FUEL IN TOTAL FUELS AND OF OXIDANT IN TOTAL OXIDANTS

 POINT ITN      T            C           H           N           O 

 Pinf/Pt = 1.751435
 Pinf/Pt = 1.758522
 Pinf/Pt = 1.758593

              THEORETICAL ROCKET PERFORMANCE ASSUMING EQUILIBRIUM

           COMPOSITION DURING EXPANSION FROM INFINITE AREA COMBUSTOR

 Pin =   250.0 PSIA
 CASE = M51-0__________

             REACTANT                    WT FRACTION      ENERGY      TEMP
                                          (SEE NOTE)      CAL/MOL       K  
 FUEL        paraffin                     1.0000000   -444694.073    298.150
 OXIDANT     N2O                          1.0000000     19627.747    300.000

 O/F=    6.00000  %FUEL= 14.285714  R,EQ.RATIO= 1.523088  PHI,EQ.RATIO= 1.523088

                 CHAMBER   THROAT
 Pinf/P            1.0000   1.7586
 P, ATM            17.011   9.6733
 T, K             3198.06  2972.01
 RHO, G/CC       1.6352-3 1.0100-3
 H, CAL/G          318.83   182.28
 U, CAL/G          66.894  -49.667
 G, CAL/G        -7570.51 -7149.40
 S, CAL/(G)(K)     2.4669   2.4669

 M, (1/n)          25.225   25.463
 (dLV/dLP)t      -1.01255 -1.00761
 (dLV/dLT)p        1.2491   1.1623
 Cp, CAL/(G)(K)    0.7894   0.6661
 GAMMAs            1.1671   1.1774
 SON VEL,M/SEC     1109.1   1069.0
 MACH NUMBER        0.000    1.000

 PERFORMANCE PARAMETERS

 Ae/At                     1.00000
 CSTAR, FT/SEC              5238.1
 CF                         0.6695
 Ivac,LB-SEC/LB              201.6
 Isp, LB-SEC/LB              109.0

 MASS FRACTIONS

 *CO              0.22628  0.22033
 *CO2             0.10260  0.11196
 *H               0.00068  0.00046
 HO2              0.00001  0.00000
 *H2              0.00509  0.00503
 H2O              0.10211  0.10675
 *NO              0.00554  0.00290
 *N2              0.54296  0.54420
 *O               0.00148  0.00064
 *OH              0.01064  0.00652
 *O2              0.00260  0.00120

  * THERMODYNAMIC PROPERTIES FITTED TO 20000.K

    PRODUCTS WHICH WERE CONSIDERED BUT WHOSE MASS FRACTIONS
    WERE LESS THAN 5.000000E-06 FOR ALL ASSIGNED CONDITIONS

 *C              *CH             CH2             CH3             CH2OH          
 CH3O            CH4             CH3OH           CH3OOH          *CN            
 CNN             COOH            *C2             C2H             C2H2,acetylene 
 C2H2,vinylidene CH2CO,ketene    O(CH)2O         HO(CO)2OH       C2H3,vinyl     
 CH3CN           CH3CO,acetyl    C2H4            C2H4O,ethylen-o CH3CHO,ethanal 
 CH3COOH         OHCH2COOH       C2H5            C2H6            CH3N2CH3       
 C2H5OH          CH3OCH3         CH3O2CH3        CCN             CNC            
 OCCN            C2N2            C2O             *C3             C3H3,1-propynl 
 C3H3,2-propynl  C3H4,allene     C3H4,propyne    C3H4,cyclo-     C3H5,allyl     
 C3H6,propylene  C3H6,cyclo-     C3H6O,propylox  C3H6O,acetone   C3H6O,propanal 
 C3H7,n-propyl   C3H7,i-propyl   C3H8            C3H8O,1propanol C3H8O,2propanol
 CNCOCN          C3O2            *C4             C4H2,butadiyne  C4H4,1,3-cyclo-
 C4H6,butadiene  C4H6,1butyne    C4H6,2butyne    C4H6,cyclo-     C4H8,1-butene  
 C4H8,cis2-buten C4H8,tr2-butene C4H8,isobutene  C4H8,cyclo-     (CH3COOH)2     
 C4H9,n-butyl    C4H9,i-butyl    C4H9,s-butyl    C4H9,t-butyl    C4H10,n-butane 
 C4H10,isobutane C4N2            *C5             C5H6,1,3cyclo-  C5H8,cyclo-    
 C5H10,1-pentene C5H10,cyclo-    C5H11,pentyl    C5H11,t-pentyl  C5H12,n-pentane
 C5H12,i-pentane CH3C(CH3)2CH3   C6H2            C6H5,phenyl     C6H5O,phenoxy  
 C6H6            C6H5OH,phenol   C6H10,cyclo-    C6H12,1-hexene  C6H12,cyclo-   
 C6H13,n-hexyl   C6H14,n-hexane  C7H7,benzyl     C7H8            C7H8O,cresol-mx
 C7H14,1-heptene C7H15,n-heptyl  C7H16,n-heptane C7H16,2-methylh C8H8,styrene   
 C8H10,ethylbenz C8H16,1-octene  C8H17,n-octyl   C8H18,n-octane  C8H18,isooctane
 C9H19,n-nonyl   C10H8,naphthale C10H21,n-decyl  C11H21          C12H9,o-bipheny
 C12H10,biphenyl HCN             HCO             HCCN            HCCO           
 HNC             HNCO            HNO             HNO2            HNO3           
 HCHO,formaldehy HCOOH           H2O2            (HCOOH)2        *N             
 NCO             *NH             NH2             NH3             NH2OH          
 NO2             NO3             N2O             NCN             N2H2           
 NH2NO2          N2H4            N2O3            N2O4            N2O5           
 N3              N3H             O3              THDCPD,endo     THDCPD,exo     
 N2H4(L)         C(gr)           CH3OH(L)        C2H5OH(L)       C6H14(L),n-hexa
 C6H5NH2(L)      C6H6(L)         H2O(cr)         H2O(L)         

 NOTE. WEIGHT FRACTION OF FUEL IN TOTAL FUELS AND OF OXIDANT IN TOTAL OXIDANTS

 POINT ITN      T            C           H           N           O 

 Pinf/Pt = 1.752109
 Pinf/Pt = 1.759372
 Pinf/Pt = 1.759446

              THEORETICAL ROCKET PERFORMANCE ASSUMING EQUILIBRIUM

           COMPOSITION DURING EXPANSION FROM INFINITE AREA COMBUSTOR

 Pin =   275.0 PSIA
 CASE = M51-0__________

             REACTANT                    WT FRACTION      ENERGY      TEMP
                                          (SEE NOTE)      CAL/MOL       K  
 FUEL        paraffin                     1.0000000   -444694.073    298.150
 OXIDANT     N2O                          1.0000000     19627.747    300.000

 O/F=    6.00000  %FUEL= 14.285714  R,EQ.RATIO= 1.523088  PHI,EQ.RATIO= 1.523088

                 CHAMBER   THROAT
 Pinf/P            1.0000   1.7594
 P, ATM            18.713   10.635
 T, K             3205.60  2976.84
 RHO, G/CC       1.7956-3 1.1091-3
 H, CAL/G          318.83   181.96
 U, CAL/G          66.453  -50.258
 G, CAL/G        -7565.03 -7139.29
 S, CAL/(G)(K)     2.4594   2.4594

 M, (1/n)          25.241   25.474
 (dLV/dLP)t      -1.01222 -1.00736
 (dLV/dLT)p        1.2423   1.1568
 Cp, CAL/(G)(K)    0.7780   0.6564
 GAMMAs            1.1682   1.1788
 SON VEL,M/SEC     1110.6   1070.2
 MACH NUMBER        0.000    1.000

 PERFORMANCE PARAMETERS

 Ae/At                      1.0000
 CSTAR, FT/SEC              5240.7
 CF                         0.6700
 Ivac,LB-SEC/LB              201.7
 Isp, LB-SEC/LB              109.1

 MASS FRACTIONS

 *CO              0.22612  0.22022
 *CO2             0.10285  0.11213
 *H               0.00066  0.00045
 HO2              0.00001  0.00000
 *H2              0.00508  0.00502
 H2O              0.10245  0.10701
 *NO              0.00547  0.00284
 *N2              0.54299  0.54423
 *O               0.00141  0.00060
 *OH              0.01044  0.00636
 *O2              0.00249  0.00113

  * THERMODYNAMIC PROPERTIES FITTED TO 20000.K

    PRODUCTS WHICH WERE CONSIDERED BUT WHOSE MASS FRACTIONS
    WERE LESS THAN 5.000000E-06 FOR ALL ASSIGNED CONDITIONS

 *C              *CH             CH2             CH3             CH2OH          
 CH3O            CH4             CH3OH           CH3OOH          *CN            
 CNN             COOH            *C2             C2H             C2H2,acetylene 
 C2H2,vinylidene CH2CO,ketene    O(CH)2O         HO(CO)2OH       C2H3,vinyl     
 CH3CN           CH3CO,acetyl    C2H4            C2H4O,ethylen-o CH3CHO,ethanal 
 CH3COOH         OHCH2COOH       C2H5            C2H6            CH3N2CH3       
 C2H5OH          CH3OCH3         CH3O2CH3        CCN             CNC            
 OCCN            C2N2            C2O             *C3             C3H3,1-propynl 
 C3H3,2-propynl  C3H4,allene     C3H4,propyne    C3H4,cyclo-     C3H5,allyl     
 C3H6,propylene  C3H6,cyclo-     C3H6O,propylox  C3H6O,acetone   C3H6O,propanal 
 C3H7,n-propyl   C3H7,i-propyl   C3H8            C3H8O,1propanol C3H8O,2propanol
 CNCOCN          C3O2            *C4             C4H2,butadiyne  C4H4,1,3-cyclo-
 C4H6,butadiene  C4H6,1butyne    C4H6,2butyne    C4H6,cyclo-     C4H8,1-butene  
 C4H8,cis2-buten C4H8,tr2-butene C4H8,isobutene  C4H8,cyclo-     (CH3COOH)2     
 C4H9,n-butyl    C4H9,i-butyl    C4H9,s-butyl    C4H9,t-butyl    C4H10,n-butane 
 C4H10,isobutane C4N2            *C5             C5H6,1,3cyclo-  C5H8,cyclo-    
 C5H10,1-pentene C5H10,cyclo-    C5H11,pentyl    C5H11,t-pentyl  C5H12,n-pentane
 C5H12,i-pentane CH3C(CH3)2CH3   C6H2            C6H5,phenyl     C6H5O,phenoxy  
 C6H6            C6H5OH,phenol   C6H10,cyclo-    C6H12,1-hexene  C6H12,cyclo-   
 C6H13,n-hexyl   C6H14,n-hexane  C7H7,benzyl     C7H8            C7H8O,cresol-mx
 C7H14,1-heptene C7H15,n-heptyl  C7H16,n-heptane C7H16,2-methylh C8H8,styrene   
 C8H10,ethylbenz C8H16,1-octene  C8H17,n-octyl   C8H18,n-octane  C8H18,isooctane
 C9H19,n-nonyl   C10H8,naphthale C10H21,n-decyl  C11H21          C12H9,o-bipheny
 C12H10,biphenyl HCN             HCO             HCCN            HCCO           
 HNC             HNCO            HNO             HNO2            HNO3           
 HCHO,formaldehy HCOOH           H2O2            (HCOOH)2        *N             
 NCO             *NH             NH2             NH3             NH2OH          
 NO2             NO3             N2O             NCN             N2H2           
 NH2NO2          N2H4            N2O3            N2O4            N2O5           
 N3              N3H             O3              THDCPD,endo     THDCPD,exo     
 N2H4(L)         C(gr)           CH3OH(L)        C2H5OH(L)       C6H14(L),n-hexa
 C6H5NH2(L)      C6H6(L)         H2O(cr)         H2O(L)         

 NOTE. WEIGHT FRACTION OF FUEL IN TOTAL FUELS AND OF OXIDANT IN TOTAL OXIDANTS

 POINT ITN      T            C           H           N           O 

 Pinf/Pt = 1.752730
 Pinf/Pt = 1.760151
 Pinf/Pt = 1.760228

              THEORETICAL ROCKET PERFORMANCE ASSUMING EQUILIBRIUM

           COMPOSITION DURING EXPANSION FROM INFINITE AREA COMBUSTOR

 Pin =   300.0 PSIA
 CASE = M51-0__________

             REACTANT                    WT FRACTION      ENERGY      TEMP
                                          (SEE NOTE)      CAL/MOL       K  
 FUEL        paraffin                     1.0000000   -444694.073    298.150
 OXIDANT     N2O                          1.0000000     19627.747    300.000

 O/F=    6.00000  %FUEL= 14.285714  R,EQ.RATIO= 1.523088  PHI,EQ.RATIO= 1.523088

                 CHAMBER   THROAT
 Pinf/P            1.0000   1.7602
 P, ATM            20.414   11.597
 T, K             3212.40  2981.16
 RHO, G/CC       1.9557-3 1.2082-3
 H, CAL/G          318.83   181.67
 U, CAL/G          66.054  -50.790
 G, CAL/G        -7559.76 -7129.78
 S, CAL/(G)(K)     2.4526   2.4526

 M, (1/n)          25.254   25.484
 (dLV/dLP)t      -1.01193 -1.00713
 (dLV/dLT)p        1.2362   1.1518
 Cp, CAL/(G)(K)    0.7677   0.6478
 GAMMAs            1.1692   1.1800
 SON VEL,M/SEC     1112.0   1071.3
 MACH NUMBER        0.000    1.000

 PERFORMANCE PARAMETERS

 Ae/At                      1.0000
 CSTAR, FT/SEC              5243.0
 CF                         0.6704
 Ivac,LB-SEC/LB              201.8
 Isp, LB-SEC/LB              109.2

 MASS FRACTIONS

 *CO              0.22598  0.22013
 *CO2             0.10307  0.11228
 *H               0.00064  0.00043
 HO2              0.00001  0.00000
 *H2              0.00507  0.00502
 H2O              0.10276  0.10724
 *NO              0.00540  0.00278
 *N2              0.54302  0.54425
 *O               0.00135  0.00057
 *OH              0.01026  0.00620
 *O2              0.00240  0.00108

  * THERMODYNAMIC PROPERTIES FITTED TO 20000.K

    PRODUCTS WHICH WERE CONSIDERED BUT WHOSE MASS FRACTIONS
    WERE LESS THAN 5.000000E-06 FOR ALL ASSIGNED CONDITIONS

 *C              *CH             CH2             CH3             CH2OH          
 CH3O            CH4             CH3OH           CH3OOH          *CN            
 CNN             COOH            *C2             C2H             C2H2,acetylene 
 C2H2,vinylidene CH2CO,ketene    O(CH)2O         HO(CO)2OH       C2H3,vinyl     
 CH3CN           CH3CO,acetyl    C2H4            C2H4O,ethylen-o CH3CHO,ethanal 
 CH3COOH         OHCH2COOH       C2H5            C2H6            CH3N2CH3       
 C2H5OH          CH3OCH3         CH3O2CH3        CCN             CNC            
 OCCN            C2N2            C2O             *C3             C3H3,1-propynl 
 C3H3,2-propynl  C3H4,allene     C3H4,propyne    C3H4,cyclo-     C3H5,allyl     
 C3H6,propylene  C3H6,cyclo-     C3H6O,propylox  C3H6O,acetone   C3H6O,propanal 
 C3H7,n-propyl   C3H7,i-propyl   C3H8            C3H8O,1propanol C3H8O,2propanol
 CNCOCN          C3O2            *C4             C4H2,butadiyne  C4H4,1,3-cyclo-
 C4H6,butadiene  C4H6,1butyne    C4H6,2butyne    C4H6,cyclo-     C4H8,1-butene  
 C4H8,cis2-buten C4H8,tr2-butene C4H8,isobutene  C4H8,cyclo-     (CH3COOH)2     
 C4H9,n-butyl    C4H9,i-butyl    C4H9,s-butyl    C4H9,t-butyl    C4H10,n-butane 
 C4H10,isobutane C4N2            *C5             C5H6,1,3cyclo-  C5H8,cyclo-    
 C5H10,1-pentene C5H10,cyclo-    C5H11,pentyl    C5H11,t-pentyl  C5H12,n-pentane
 C5H12,i-pentane CH3C(CH3)2CH3   C6H2            C6H5,phenyl     C6H5O,phenoxy  
 C6H6            C6H5OH,phenol   C6H10,cyclo-    C6H12,1-hexene  C6H12,cyclo-   
 C6H13,n-hexyl   C6H14,n-hexane  C7H7,benzyl     C7H8            C7H8O,cresol-mx
 C7H14,1-heptene C7H15,n-heptyl  C7H16,n-heptane C7H16,2-methylh C8H8,styrene   
 C8H10,ethylbenz C8H16,1-octene  C8H17,n-octyl   C8H18,n-octane  C8H18,isooctane
 C9H19,n-nonyl   C10H8,naphthale C10H21,n-decyl  C11H21          C12H9,o-bipheny
 C12H10,biphenyl HCN             HCO             HCCN            HCCO           
 HNC             HNCO            HNO             HNO2            HNO3           
 HCHO,formaldehy HCOOH           H2O2            (HCOOH)2        *N             
 NCO             *NH             NH2             NH3             NH2OH          
 NO2             NO3             N2O             NCN             N2H2           
 NH2NO2          N2H4            N2O3            N2O4            N2O5           
 N3              N3H             O3              THDCPD,endo     THDCPD,exo     
 N2H4(L)         C(gr)           CH3OH(L)        C2H5OH(L)       C6H14(L),n-hexa
 C6H5NH2(L)      C6H6(L)         H2O(cr)         H2O(L)         

 NOTE. WEIGHT FRACTION OF FUEL IN TOTAL FUELS AND OF OXIDANT IN TOTAL OXIDANTS

 POINT ITN      T            C           H           N           O 

 Pinf/Pt = 1.753305
 Pinf/Pt = 1.760869
 Pinf/Pt = 1.760948

              THEORETICAL ROCKET PERFORMANCE ASSUMING EQUILIBRIUM

           COMPOSITION DURING EXPANSION FROM INFINITE AREA COMBUSTOR

 Pin =   325.0 PSIA
 CASE = M51-0__________

             REACTANT                    WT FRACTION      ENERGY      TEMP
                                          (SEE NOTE)      CAL/MOL       K  
 FUEL        paraffin                     1.0000000   -444694.073    298.150
 OXIDANT     N2O                          1.0000000     19627.747    300.000

 O/F=    6.00000  %FUEL= 14.285714  R,EQ.RATIO= 1.523088  PHI,EQ.RATIO= 1.523088

                 CHAMBER   THROAT
 Pinf/P            1.0000   1.7609
 P, ATM            22.115   12.558
 T, K             3218.59  2985.05
 RHO, G/CC       2.1157-3 1.3071-3
 H, CAL/G          318.83   181.41
 U, CAL/G          65.692  -51.272
 G, CAL/G        -7554.68 -7120.79
 S, CAL/(G)(K)     2.4463   2.4463

 M, (1/n)          25.267   25.494
 (dLV/dLP)t      -1.01166 -1.00693
 (dLV/dLT)p        1.2306   1.1474
 Cp, CAL/(G)(K)    0.7584   0.6400
 GAMMAs            1.1701   1.1812
 SON VEL,M/SEC     1113.2   1072.4
 MACH NUMBER        0.000    1.000

 PERFORMANCE PARAMETERS

 Ae/At                      1.0000
 CSTAR, FT/SEC              5245.0
 CF                         0.6708
 Ivac,LB-SEC/LB              201.9
 Isp, LB-SEC/LB              109.3

 MASS FRACTIONS

 *CO              0.22585  0.22004
 *CO2             0.10328  0.11241
 *H               0.00063  0.00042
 HCO              0.00001  0.00000
 HO2              0.00001  0.00000
 *H2              0.00507  0.00502
 H2O              0.10304  0.10746
 *NO              0.00534  0.00273
 *N2              0.54305  0.54428
 *O               0.00130  0.00054
 *OH              0.01010  0.00607
 *O2              0.00231  0.00103

  * THERMODYNAMIC PROPERTIES FITTED TO 20000.K

    PRODUCTS WHICH WERE CONSIDERED BUT WHOSE MASS FRACTIONS
    WERE LESS THAN 5.000000E-06 FOR ALL ASSIGNED CONDITIONS

 *C              *CH             CH2             CH3             CH2OH          
 CH3O            CH4             CH3OH           CH3OOH          *CN            
 CNN             COOH            *C2             C2H             C2H2,acetylene 
 C2H2,vinylidene CH2CO,ketene    O(CH)2O         HO(CO)2OH       C2H3,vinyl     
 CH3CN           CH3CO,acetyl    C2H4            C2H4O,ethylen-o CH3CHO,ethanal 
 CH3COOH         OHCH2COOH       C2H5            C2H6            CH3N2CH3       
 C2H5OH          CH3OCH3         CH3O2CH3        CCN             CNC            
 OCCN            C2N2            C2O             *C3             C3H3,1-propynl 
 C3H3,2-propynl  C3H4,allene     C3H4,propyne    C3H4,cyclo-     C3H5,allyl     
 C3H6,propylene  C3H6,cyclo-     C3H6O,propylox  C3H6O,acetone   C3H6O,propanal 
 C3H7,n-propyl   C3H7,i-propyl   C3H8            C3H8O,1propanol C3H8O,2propanol
 CNCOCN          C3O2            *C4             C4H2,butadiyne  C4H4,1,3-cyclo-
 C4H6,butadiene  C4H6,1butyne    C4H6,2butyne    C4H6,cyclo-     C4H8,1-butene  
 C4H8,cis2-buten C4H8,tr2-butene C4H8,isobutene  C4H8,cyclo-     (CH3COOH)2     
 C4H9,n-butyl    C4H9,i-butyl    C4H9,s-butyl    C4H9,t-butyl    C4H10,n-butane 
 C4H10,isobutane C4N2            *C5             C5H6,1,3cyclo-  C5H8,cyclo-    
 C5H10,1-pentene C5H10,cyclo-    C5H11,pentyl    C5H11,t-pentyl  C5H12,n-pentane
 C5H12,i-pentane CH3C(CH3)2CH3   C6H2            C6H5,phenyl     C6H5O,phenoxy  
 C6H6            C6H5OH,phenol   C6H10,cyclo-    C6H12,1-hexene  C6H12,cyclo-   
 C6H13,n-hexyl   C6H14,n-hexane  C7H7,benzyl     C7H8            C7H8O,cresol-mx
 C7H14,1-heptene C7H15,n-heptyl  C7H16,n-heptane C7H16,2-methylh C8H8,styrene   
 C8H10,ethylbenz C8H16,1-octene  C8H17,n-octyl   C8H18,n-octane  C8H18,isooctane
 C9H19,n-nonyl   C10H8,naphthale C10H21,n-decyl  C11H21          C12H9,o-bipheny
 C12H10,biphenyl HCN             HCCN            HCCO            HNC            
 HNCO            HNO             HNO2            HNO3            HCHO,formaldehy
 HCOOH           H2O2            (HCOOH)2        *N              NCO            
 *NH             NH2             NH3             NH2OH           NO2            
 NO3             N2O             NCN             N2H2            NH2NO2         
 N2H4            N2O3            N2O4            N2O5            N3             
 N3H             O3              THDCPD,endo     THDCPD,exo      N2H4(L)        
 C(gr)           CH3OH(L)        C2H5OH(L)       C6H14(L),n-hexa C6H5NH2(L)     
 C6H6(L)         H2O(cr)         H2O(L)         

 NOTE. WEIGHT FRACTION OF FUEL IN TOTAL FUELS AND OF OXIDANT IN TOTAL OXIDANTS

 POINT ITN      T            C           H           N           O 

 Pinf/Pt = 1.753841
 Pinf/Pt = 1.761534
 Pinf/Pt = 1.761615

              THEORETICAL ROCKET PERFORMANCE ASSUMING EQUILIBRIUM

           COMPOSITION DURING EXPANSION FROM INFINITE AREA COMBUSTOR

 Pin =   350.0 PSIA
 CASE = M51-0__________

             REACTANT                    WT FRACTION      ENERGY      TEMP
                                          (SEE NOTE)      CAL/MOL       K  
 FUEL        paraffin                     1.0000000   -444694.073    298.150
 OXIDANT     N2O                          1.0000000     19627.747    300.000

 O/F=    6.00000  %FUEL= 14.285714  R,EQ.RATIO= 1.523088  PHI,EQ.RATIO= 1.523088

                 CHAMBER   THROAT
 Pinf/P            1.0000   1.7616
 P, ATM            23.816   13.519
 T, K             3224.27  2988.59
 RHO, G/CC       2.2754-3 1.4059-3
 H, CAL/G          318.83   181.17
 U, CAL/G          65.361  -51.713
 G, CAL/G        -7549.78 -7112.28
 S, CAL/(G)(K)     2.4404   2.4404

 M, (1/n)          25.278   25.502
 (dLV/dLP)t      -1.01141 -1.00674
 (dLV/dLT)p        1.2255   1.1433
 Cp, CAL/(G)(K)    0.7499   0.6330
 GAMMAs            1.1710   1.1823
 SON VEL,M/SEC     1114.4   1073.3
 MACH NUMBER        0.000    1.000

 PERFORMANCE PARAMETERS

 Ae/At                      1.0000
 CSTAR, FT/SEC              5246.8
 CF                         0.6711
 Ivac,LB-SEC/LB              202.0
 Isp, LB-SEC/LB              109.4

 MASS FRACTIONS

 *CO              0.22572  0.21996
 *CO2             0.10347  0.11253
 *H               0.00061  0.00041
 HCO              0.00001  0.00000
 HO2              0.00001  0.00000
 *H2              0.00506  0.00501
 H2O              0.10330  0.10765
 *NO              0.00528  0.00268
 *N2              0.54308  0.54430
 *O               0.00125  0.00052
 *OH              0.00994  0.00594
 *O2              0.00224  0.00098

  * THERMODYNAMIC PROPERTIES FITTED TO 20000.K

    PRODUCTS WHICH WERE CONSIDERED BUT WHOSE MASS FRACTIONS
    WERE LESS THAN 5.000000E-06 FOR ALL ASSIGNED CONDITIONS

 *C              *CH             CH2             CH3             CH2OH          
 CH3O            CH4             CH3OH           CH3OOH          *CN            
 CNN             COOH            *C2             C2H             C2H2,acetylene 
 C2H2,vinylidene CH2CO,ketene    O(CH)2O         HO(CO)2OH       C2H3,vinyl     
 CH3CN           CH3CO,acetyl    C2H4            C2H4O,ethylen-o CH3CHO,ethanal 
 CH3COOH         OHCH2COOH       C2H5            C2H6            CH3N2CH3       
 C2H5OH          CH3OCH3         CH3O2CH3        CCN             CNC            
 OCCN            C2N2            C2O             *C3             C3H3,1-propynl 
 C3H3,2-propynl  C3H4,allene     C3H4,propyne    C3H4,cyclo-     C3H5,allyl     
 C3H6,propylene  C3H6,cyclo-     C3H6O,propylox  C3H6O,acetone   C3H6O,propanal 
 C3H7,n-propyl   C3H7,i-propyl   C3H8            C3H8O,1propanol C3H8O,2propanol
 CNCOCN          C3O2            *C4             C4H2,butadiyne  C4H4,1,3-cyclo-
 C4H6,butadiene  C4H6,1butyne    C4H6,2butyne    C4H6,cyclo-     C4H8,1-butene  
 C4H8,cis2-buten C4H8,tr2-butene C4H8,isobutene  C4H8,cyclo-     (CH3COOH)2     
 C4H9,n-butyl    C4H9,i-butyl    C4H9,s-butyl    C4H9,t-butyl    C4H10,n-butane 
 C4H10,isobutane C4N2            *C5             C5H6,1,3cyclo-  C5H8,cyclo-    
 C5H10,1-pentene C5H10,cyclo-    C5H11,pentyl    C5H11,t-pentyl  C5H12,n-pentane
 C5H12,i-pentane CH3C(CH3)2CH3   C6H2            C6H5,phenyl     C6H5O,phenoxy  
 C6H6            C6H5OH,phenol   C6H10,cyclo-    C6H12,1-hexene  C6H12,cyclo-   
 C6H13,n-hexyl   C6H14,n-hexane  C7H7,benzyl     C7H8            C7H8O,cresol-mx
 C7H14,1-heptene C7H15,n-heptyl  C7H16,n-heptane C7H16,2-methylh C8H8,styrene   
 C8H10,ethylbenz C8H16,1-octene  C8H17,n-octyl   C8H18,n-octane  C8H18,isooctane
 C9H19,n-nonyl   C10H8,naphthale C10H21,n-decyl  C11H21          C12H9,o-bipheny
 C12H10,biphenyl HCN             HCCN            HCCO            HNC            
 HNCO            HNO             HNO2            HNO3            HCHO,formaldehy
 HCOOH           H2O2            (HCOOH)2        *N              NCO            
 *NH             NH2             NH3             NH2OH           NO2            
 NO3             N2O             NCN             N2H2            NH2NO2         
 N2H4            N2O3            N2O4            N2O5            N3             
 N3H             O3              THDCPD,endo     THDCPD,exo      N2H4(L)        
 C(gr)           CH3OH(L)        C2H5OH(L)       C6H14(L),n-hexa C6H5NH2(L)     
 C6H6(L)         H2O(cr)         H2O(L)         

 NOTE. WEIGHT FRACTION OF FUEL IN TOTAL FUELS AND OF OXIDANT IN TOTAL OXIDANTS

 POINT ITN      T            C           H           N           O 

 Pinf/Pt = 1.754342
 Pinf/Pt = 1.762154
 Pinf/Pt = 1.762237

              THEORETICAL ROCKET PERFORMANCE ASSUMING EQUILIBRIUM

           COMPOSITION DURING EXPANSION FROM INFINITE AREA COMBUSTOR

 Pin =   375.0 PSIA
 CASE = M51-0__________

             REACTANT                    WT FRACTION      ENERGY      TEMP
                                          (SEE NOTE)      CAL/MOL       K  
 FUEL        paraffin                     1.0000000   -444694.073    298.150
 OXIDANT     N2O                          1.0000000     19627.747    300.000

 O/F=    6.00000  %FUEL= 14.285714  R,EQ.RATIO= 1.523088  PHI,EQ.RATIO= 1.523088

                 CHAMBER   THROAT
 Pinf/P            1.0000   1.7622
 P, ATM            25.517   14.480
 T, K             3229.50  2991.82
 RHO, G/CC       2.4350-3 1.5046-3
 H, CAL/G          318.83   180.94
 U, CAL/G          65.055  -52.118
 G, CAL/G        -7545.04 -7104.18
 S, CAL/(G)(K)     2.4350   2.4350

 M, (1/n)          25.289   25.510
 (dLV/dLP)t      -1.01119 -1.00657
 (dLV/dLT)p        1.2208   1.1396
 Cp, CAL/(G)(K)    0.7422   0.6266
 GAMMAs            1.1718   1.1833
 SON VEL,M/SEC     1115.5   1074.2
 MACH NUMBER        0.000    1.000

 PERFORMANCE PARAMETERS

 Ae/At                      1.0000
 CSTAR, FT/SEC              5248.5
 CF                         0.6715
 Ivac,LB-SEC/LB              202.1
 Isp, LB-SEC/LB              109.5

 MASS FRACTIONS

 *CO              0.22561  0.21989
 *CO2             0.10365  0.11264
 *H               0.00060  0.00040
 HCO              0.00001  0.00000
 HO2              0.00001  0.00000
 *H2              0.00505  0.00501
 H2O              0.10354  0.10783
 *NO              0.00522  0.00263
 *N2              0.54311  0.54432
 *O               0.00121  0.00049
 *OH              0.00980  0.00582
 *O2              0.00216  0.00094

  * THERMODYNAMIC PROPERTIES FITTED TO 20000.K

    PRODUCTS WHICH WERE CONSIDERED BUT WHOSE MASS FRACTIONS
    WERE LESS THAN 5.000000E-06 FOR ALL ASSIGNED CONDITIONS

 *C              *CH             CH2             CH3             CH2OH          
 CH3O            CH4             CH3OH           CH3OOH          *CN            
 CNN             COOH            *C2             C2H             C2H2,acetylene 
 C2H2,vinylidene CH2CO,ketene    O(CH)2O         HO(CO)2OH       C2H3,vinyl     
 CH3CN           CH3CO,acetyl    C2H4            C2H4O,ethylen-o CH3CHO,ethanal 
 CH3COOH         OHCH2COOH       C2H5            C2H6            CH3N2CH3       
 C2H5OH          CH3OCH3         CH3O2CH3        CCN             CNC            
 OCCN            C2N2            C2O             *C3             C3H3,1-propynl 
 C3H3,2-propynl  C3H4,allene     C3H4,propyne    C3H4,cyclo-     C3H5,allyl     
 C3H6,propylene  C3H6,cyclo-     C3H6O,propylox  C3H6O,acetone   C3H6O,propanal 
 C3H7,n-propyl   C3H7,i-propyl   C3H8            C3H8O,1propanol C3H8O,2propanol
 CNCOCN          C3O2            *C4             C4H2,butadiyne  C4H4,1,3-cyclo-
 C4H6,butadiene  C4H6,1butyne    C4H6,2butyne    C4H6,cyclo-     C4H8,1-butene  
 C4H8,cis2-buten C4H8,tr2-butene C4H8,isobutene  C4H8,cyclo-     (CH3COOH)2     
 C4H9,n-butyl    C4H9,i-butyl    C4H9,s-butyl    C4H9,t-butyl    C4H10,n-butane 
 C4H10,isobutane C4N2            *C5             C5H6,1,3cyclo-  C5H8,cyclo-    
 C5H10,1-pentene C5H10,cyclo-    C5H11,pentyl    C5H11,t-pentyl  C5H12,n-pentane
 C5H12,i-pentane CH3C(CH3)2CH3   C6H2            C6H5,phenyl     C6H5O,phenoxy  
 C6H6            C6H5OH,phenol   C6H10,cyclo-    C6H12,1-hexene  C6H12,cyclo-   
 C6H13,n-hexyl   C6H14,n-hexane  C7H7,benzyl     C7H8            C7H8O,cresol-mx
 C7H14,1-heptene C7H15,n-heptyl  C7H16,n-heptane C7H16,2-methylh C8H8,styrene   
 C8H10,ethylbenz C8H16,1-octene  C8H17,n-octyl   C8H18,n-octane  C8H18,isooctane
 C9H19,n-nonyl   C10H8,naphthale C10H21,n-decyl  C11H21          C12H9,o-bipheny
 C12H10,biphenyl HCN             HCCN            HCCO            HNC            
 HNCO            HNO             HNO2            HNO3            HCHO,formaldehy
 HCOOH           H2O2            (HCOOH)2        *N              NCO            
 *NH             NH2             NH3             NH2OH           NO2            
 NO3             N2O             NCN             N2H2            NH2NO2         
 N2H4            N2O3            N2O4            N2O5            N3             
 N3H             O3              THDCPD,endo     THDCPD,exo      N2H4(L)        
 C(gr)           CH3OH(L)        C2H5OH(L)       C6H14(L),n-hexa C6H5NH2(L)     
 C6H6(L)         H2O(cr)         H2O(L)         

 NOTE. WEIGHT FRACTION OF FUEL IN TOTAL FUELS AND OF OXIDANT IN TOTAL OXIDANTS

 POINT ITN      T            C           H           N           O 

 Pinf/Pt = 1.754814
 Pinf/Pt = 1.762733
 Pinf/Pt = 1.762818

              THEORETICAL ROCKET PERFORMANCE ASSUMING EQUILIBRIUM

           COMPOSITION DURING EXPANSION FROM INFINITE AREA COMBUSTOR

 Pin =   400.0 PSIA
 CASE = M51-0__________

             REACTANT                    WT FRACTION      ENERGY      TEMP
                                          (SEE NOTE)      CAL/MOL       K  
 FUEL        paraffin                     1.0000000   -444694.073    298.150
 OXIDANT     N2O                          1.0000000     19627.747    300.000

 O/F=    6.00000  %FUEL= 14.285714  R,EQ.RATIO= 1.523088  PHI,EQ.RATIO= 1.523088

                 CHAMBER   THROAT
 Pinf/P            1.0000   1.7628
 P, ATM            27.218   15.440
 T, K             3234.36  2994.80
 RHO, G/CC       2.5945-3 1.6032-3
 H, CAL/G          318.83   180.74
 U, CAL/G          64.772  -52.492
 G, CAL/G        -7540.45 -7096.45
 S, CAL/(G)(K)     2.4299   2.4299

 M, (1/n)          25.299   25.517
 (dLV/dLP)t      -1.01098 -1.00641
 (dLV/dLT)p        1.2165   1.1362
 Cp, CAL/(G)(K)    0.7350   0.6207
 GAMMAs            1.1726   1.1842
 SON VEL,M/SEC     1116.4   1075.0
 MACH NUMBER        0.000    1.000

 PERFORMANCE PARAMETERS

 Ae/At                      1.0000
 CSTAR, FT/SEC              5250.1
 CF                         0.6718
 Ivac,LB-SEC/LB              202.2
 Isp, LB-SEC/LB              109.6

 MASS FRACTIONS

 *CO              0.22550  0.21983
 *CO2             0.10382  0.11275
 *H               0.00059  0.00039
 HCO              0.00001  0.00000
 HO2              0.00001  0.00000
 *H2              0.00505  0.00501
 H2O              0.10377  0.10799
 *NO              0.00517  0.00259
 *N2              0.54313  0.54434
 *O               0.00117  0.00047
 *OH              0.00966  0.00571
 *O2              0.00210  0.00090

  * THERMODYNAMIC PROPERTIES FITTED TO 20000.K

    PRODUCTS WHICH WERE CONSIDERED BUT WHOSE MASS FRACTIONS
    WERE LESS THAN 5.000000E-06 FOR ALL ASSIGNED CONDITIONS

 *C              *CH             CH2             CH3             CH2OH          
 CH3O            CH4             CH3OH           CH3OOH          *CN            
 CNN             COOH            *C2             C2H             C2H2,acetylene 
 C2H2,vinylidene CH2CO,ketene    O(CH)2O         HO(CO)2OH       C2H3,vinyl     
 CH3CN           CH3CO,acetyl    C2H4            C2H4O,ethylen-o CH3CHO,ethanal 
 CH3COOH         OHCH2COOH       C2H5            C2H6            CH3N2CH3       
 C2H5OH          CH3OCH3         CH3O2CH3        CCN             CNC            
 OCCN            C2N2            C2O             *C3             C3H3,1-propynl 
 C3H3,2-propynl  C3H4,allene     C3H4,propyne    C3H4,cyclo-     C3H5,allyl     
 C3H6,propylene  C3H6,cyclo-     C3H6O,propylox  C3H6O,acetone   C3H6O,propanal 
 C3H7,n-propyl   C3H7,i-propyl   C3H8            C3H8O,1propanol C3H8O,2propanol
 CNCOCN          C3O2            *C4             C4H2,butadiyne  C4H4,1,3-cyclo-
 C4H6,butadiene  C4H6,1butyne    C4H6,2butyne    C4H6,cyclo-     C4H8,1-butene  
 C4H8,cis2-buten C4H8,tr2-butene C4H8,isobutene  C4H8,cyclo-     (CH3COOH)2     
 C4H9,n-butyl    C4H9,i-butyl    C4H9,s-butyl    C4H9,t-butyl    C4H10,n-butane 
 C4H10,isobutane C4N2            *C5             C5H6,1,3cyclo-  C5H8,cyclo-    
 C5H10,1-pentene C5H10,cyclo-    C5H11,pentyl    C5H11,t-pentyl  C5H12,n-pentane
 C5H12,i-pentane CH3C(CH3)2CH3   C6H2            C6H5,phenyl     C6H5O,phenoxy  
 C6H6            C6H5OH,phenol   C6H10,cyclo-    C6H12,1-hexene  C6H12,cyclo-   
 C6H13,n-hexyl   C6H14,n-hexane  C7H7,benzyl     C7H8            C7H8O,cresol-mx
 C7H14,1-heptene C7H15,n-heptyl  C7H16,n-heptane C7H16,2-methylh C8H8,styrene   
 C8H10,ethylbenz C8H16,1-octene  C8H17,n-octyl   C8H18,n-octane  C8H18,isooctane
 C9H19,n-nonyl   C10H8,naphthale C10H21,n-decyl  C11H21          C12H9,o-bipheny
 C12H10,biphenyl HCN             HCCN            HCCO            HNC            
 HNCO            HNO             HNO2            HNO3            HCHO,formaldehy
 HCOOH           H2O2            (HCOOH)2        *N              NCO            
 *NH             NH2             NH3             NH2OH           NO2            
 NO3             N2O             NCN             N2H2            NH2NO2         
 N2H4            N2O3            N2O4            N2O5            N3             
 N3H             O3              THDCPD,endo     THDCPD,exo      N2H4(L)        
 C(gr)           CH3OH(L)        C2H5OH(L)       C6H14(L),n-hexa C6H5NH2(L)     
 C6H6(L)         H2O(cr)         H2O(L)         

 NOTE. WEIGHT FRACTION OF FUEL IN TOTAL FUELS AND OF OXIDANT IN TOTAL OXIDANTS

 O/F =   7.000000

                       EFFECTIVE FUEL     EFFECTIVE OXIDANT        MIXTURE
 ENTHALPY                  h(2)/R              h(1)/R               h0/R
 (KG-MOL)(K)/KG       -0.22338305E+03      0.22441221E+03      0.16843780E+03

 KG-FORM.WT./KG             bi(2)               bi(1)               b0i
  *C                   0.72871334E-01      0.00000000E+00      0.91089168E-02
  *H                   0.12378144E+00      0.00000000E+00      0.15472681E-01
  *N                   0.00000000E+00      0.45441326E-01      0.39761160E-01
  *O                   0.00000000E+00      0.22720663E-01      0.19880580E-01

 POINT ITN      T            C           H           N           O 

 Pinf/Pt = 1.739535

              THEORETICAL ROCKET PERFORMANCE ASSUMING EQUILIBRIUM

           COMPOSITION DURING EXPANSION FROM INFINITE AREA COMBUSTOR

 Pin =   200.0 PSIA
 CASE = M51-0__________

             REACTANT                    WT FRACTION      ENERGY      TEMP
                                          (SEE NOTE)      CAL/MOL       K  
 FUEL        paraffin                     1.0000000   -444694.073    298.150
 OXIDANT     N2O                          1.0000000     19627.747    300.000

 O/F=    7.00000  %FUEL= 12.500000  R,EQ.RATIO= 1.305504  PHI,EQ.RATIO= 1.305504

                 CHAMBER   THROAT
 Pinf/P            1.0000   1.7395
 P, ATM            13.609   7.8234
 T, K             3244.51  3058.60
 RHO, G/CC       1.3326-3 8.2247-4
 H, CAL/G          334.72   202.55
 U, CAL/G          87.396  -27.807
 G, CAL/G        -7568.46 -7247.78
 S, CAL/(G)(K)     2.4359   2.4359

 M, (1/n)          26.069   26.385
 (dLV/dLP)t      -1.02079 -1.01621
 (dLV/dLT)p        1.4113   1.3426
 Cp, CAL/(G)(K)    1.0162   0.9379
 GAMMAs            1.1476   1.1475
 SON VEL,M/SEC     1089.8   1051.7
 MACH NUMBER        0.000    1.000

 PERFORMANCE PARAMETERS

 Ae/At                      1.0000
 CSTAR, FT/SEC              5230.4
 CF                         0.6597
 Ivac,LB-SEC/LB              200.7
 Isp, LB-SEC/LB              107.2

 MASS FRACTIONS

 *CO              0.17293  0.16285
 *CO2             0.12916  0.14501
 *H               0.00064  0.00048
 HO2              0.00002  0.00001
 *H2              0.00294  0.00272
 H2O              0.09821  0.10378
 *N               0.00001  0.00000
 *NO              0.01228  0.00849
 NO2              0.00001  0.00000
 *N2              0.55117  0.55295
 *O               0.00392  0.00244
 *OH              0.01726  0.01306
 *O2              0.01143  0.00819

  * THERMODYNAMIC PROPERTIES FITTED TO 20000.K

    PRODUCTS WHICH WERE CONSIDERED BUT WHOSE MASS FRACTIONS
    WERE LESS THAN 5.000000E-06 FOR ALL ASSIGNED CONDITIONS

 *C              *CH             CH2             CH3             CH2OH          
 CH3O            CH4             CH3OH           CH3OOH          *CN            
 CNN             COOH            *C2             C2H             C2H2,acetylene 
 C2H2,vinylidene CH2CO,ketene    O(CH)2O         HO(CO)2OH       C2H3,vinyl     
 CH3CN           CH3CO,acetyl    C2H4            C2H4O,ethylen-o CH3CHO,ethanal 
 CH3COOH         OHCH2COOH       C2H5            C2H6            CH3N2CH3       
 C2H5OH          CH3OCH3         CH3O2CH3        CCN             CNC            
 OCCN            C2N2            C2O             *C3             C3H3,1-propynl 
 C3H3,2-propynl  C3H4,allene     C3H4,propyne    C3H4,cyclo-     C3H5,allyl     
 C3H6,propylene  C3H6,cyclo-     C3H6O,propylox  C3H6O,acetone   C3H6O,propanal 
 C3H7,n-propyl   C3H7,i-propyl   C3H8            C3H8O,1propanol C3H8O,2propanol
 CNCOCN          C3O2            *C4             C4H2,butadiyne  C4H4,1,3-cyclo-
 C4H6,butadiene  C4H6,1butyne    C4H6,2butyne    C4H6,cyclo-     C4H8,1-butene  
 C4H8,cis2-buten C4H8,tr2-butene C4H8,isobutene  C4H8,cyclo-     (CH3COOH)2     
 C4H9,n-butyl    C4H9,i-butyl    C4H9,s-butyl    C4H9,t-butyl    C4H10,n-butane 
 C4H10,isobutane C4N2            *C5             C5H6,1,3cyclo-  C5H8,cyclo-    
 C5H10,1-pentene C5H10,cyclo-    C5H11,pentyl    C5H11,t-pentyl  C5H12,n-pentane
 C5H12,i-pentane CH3C(CH3)2CH3   C6H2            C6H5,phenyl     C6H5O,phenoxy  
 C6H6            C6H5OH,phenol   C6H10,cyclo-    C6H12,1-hexene  C6H12,cyclo-   
 C6H13,n-hexyl   C6H14,n-hexane  C7H7,benzyl     C7H8            C7H8O,cresol-mx
 C7H14,1-heptene C7H15,n-heptyl  C7H16,n-heptane C7H16,2-methylh C8H8,styrene   
 C8H10,ethylbenz C8H16,1-octene  C8H17,n-octyl   C8H18,n-octane  C8H18,isooctane
 C9H19,n-nonyl   C10H8,naphthale C10H21,n-decyl  C11H21          C12H9,o-bipheny
 C12H10,biphenyl HCN             HCO             HCCN            HCCO           
 HNC             HNCO            HNO             HNO2            HNO3           
 HCHO,formaldehy HCOOH           H2O2            (HCOOH)2        NCO            
 *NH             NH2             NH3             NH2OH           NO3            
 N2O             NCN             N2H2            NH2NO2          N2H4           
 N2O3            N2O4            N2O5            N3              N3H            
 O3              THDCPD,endo     THDCPD,exo      N2H4(L)         C(gr)          
 CH3OH(L)        C2H5OH(L)       C6H14(L),n-hexa C6H5NH2(L)      C6H6(L)        
 H2O(cr)         H2O(L)         

 NOTE. WEIGHT FRACTION OF FUEL IN TOTAL FUELS AND OF OXIDANT IN TOTAL OXIDANTS

 POINT ITN      T            C           H           N           O 

 Pinf/Pt = 1.740069
 Pinf/Pt = 1.740156

              THEORETICAL ROCKET PERFORMANCE ASSUMING EQUILIBRIUM

           COMPOSITION DURING EXPANSION FROM INFINITE AREA COMBUSTOR

 Pin =   225.0 PSIA
 CASE = M51-0__________

             REACTANT                    WT FRACTION      ENERGY      TEMP
                                          (SEE NOTE)      CAL/MOL       K  
 FUEL        paraffin                     1.0000000   -444694.073    298.150
 OXIDANT     N2O                          1.0000000     19627.747    300.000

 O/F=    7.00000  %FUEL= 12.500000  R,EQ.RATIO= 1.305504  PHI,EQ.RATIO= 1.305504

                 CHAMBER   THROAT
 Pinf/P            1.0000   1.7402
 P, ATM            15.310   8.7982
 T, K             3256.28  3068.01
 RHO, G/CC       1.4951-3 9.2289-4
 H, CAL/G          334.72   202.14
 U, CAL/G          86.736  -28.731
 G, CAL/G        -7567.90 -7243.56
 S, CAL/(G)(K)     2.4269   2.4269

 M, (1/n)          26.094   26.408
 (dLV/dLP)t      -1.02037 -1.01581
 (dLV/dLT)p        1.4023   1.3337
 Cp, CAL/(G)(K)    1.0006   0.9223
 GAMMAs            1.1485   1.1485
 SON VEL,M/SEC     1091.6   1053.3
 MACH NUMBER        0.000    1.000

 PERFORMANCE PARAMETERS

 Ae/At                      1.0000
 CSTAR, FT/SEC              5235.8
 CF                         0.6600
 Ivac,LB-SEC/LB              200.9
 Isp, LB-SEC/LB              107.4

 MASS FRACTIONS

 *CO              0.17244  0.16237
 *CO2             0.12993  0.14576
 *H               0.00062  0.00047
 HO2              0.00002  0.00001
 *H2              0.00292  0.00271
 H2O              0.09868  0.10420
 *N               0.00001  0.00000
 *NO              0.01226  0.00843
 NO2              0.00001  0.00000
 *N2              0.55119  0.55298
 *O               0.00377  0.00233
 *OH              0.01704  0.01283
 *O2              0.01111  0.00790

  * THERMODYNAMIC PROPERTIES FITTED TO 20000.K

    PRODUCTS WHICH WERE CONSIDERED BUT WHOSE MASS FRACTIONS
    WERE LESS THAN 5.000000E-06 FOR ALL ASSIGNED CONDITIONS

 *C              *CH             CH2             CH3             CH2OH          
 CH3O            CH4             CH3OH           CH3OOH          *CN            
 CNN             COOH            *C2             C2H             C2H2,acetylene 
 C2H2,vinylidene CH2CO,ketene    O(CH)2O         HO(CO)2OH       C2H3,vinyl     
 CH3CN           CH3CO,acetyl    C2H4            C2H4O,ethylen-o CH3CHO,ethanal 
 CH3COOH         OHCH2COOH       C2H5            C2H6            CH3N2CH3       
 C2H5OH          CH3OCH3         CH3O2CH3        CCN             CNC            
 OCCN            C2N2            C2O             *C3             C3H3,1-propynl 
 C3H3,2-propynl  C3H4,allene     C3H4,propyne    C3H4,cyclo-     C3H5,allyl     
 C3H6,propylene  C3H6,cyclo-     C3H6O,propylox  C3H6O,acetone   C3H6O,propanal 
 C3H7,n-propyl   C3H7,i-propyl   C3H8            C3H8O,1propanol C3H8O,2propanol
 CNCOCN          C3O2            *C4             C4H2,butadiyne  C4H4,1,3-cyclo-
 C4H6,butadiene  C4H6,1butyne    C4H6,2butyne    C4H6,cyclo-     C4H8,1-butene  
 C4H8,cis2-buten C4H8,tr2-butene C4H8,isobutene  C4H8,cyclo-     (CH3COOH)2     
 C4H9,n-butyl    C4H9,i-butyl    C4H9,s-butyl    C4H9,t-butyl    C4H10,n-butane 
 C4H10,isobutane C4N2            *C5             C5H6,1,3cyclo-  C5H8,cyclo-    
 C5H10,1-pentene C5H10,cyclo-    C5H11,pentyl    C5H11,t-pentyl  C5H12,n-pentane
 C5H12,i-pentane CH3C(CH3)2CH3   C6H2            C6H5,phenyl     C6H5O,phenoxy  
 C6H6            C6H5OH,phenol   C6H10,cyclo-    C6H12,1-hexene  C6H12,cyclo-   
 C6H13,n-hexyl   C6H14,n-hexane  C7H7,benzyl     C7H8            C7H8O,cresol-mx
 C7H14,1-heptene C7H15,n-heptyl  C7H16,n-heptane C7H16,2-methylh C8H8,styrene   
 C8H10,ethylbenz C8H16,1-octene  C8H17,n-octyl   C8H18,n-octane  C8H18,isooctane
 C9H19,n-nonyl   C10H8,naphthale C10H21,n-decyl  C11H21          C12H9,o-bipheny
 C12H10,biphenyl HCN             HCO             HCCN            HCCO           
 HNC             HNCO            HNO             HNO2            HNO3           
 HCHO,formaldehy HCOOH           H2O2            (HCOOH)2        NCO            
 *NH             NH2             NH3             NH2OH           NO3            
 N2O             NCN             N2H2            NH2NO2          N2H4           
 N2O3            N2O4            N2O5            N3              N3H            
 O3              THDCPD,endo     THDCPD,exo      N2H4(L)         C(gr)          
 CH3OH(L)        C2H5OH(L)       C6H14(L),n-hexa C6H5NH2(L)      C6H6(L)        
 H2O(cr)         H2O(L)         

 NOTE. WEIGHT FRACTION OF FUEL IN TOTAL FUELS AND OF OXIDANT IN TOTAL OXIDANTS

 POINT ITN      T            C           H           N           O 

 Pinf/Pt = 1.740551
 Pinf/Pt = 1.740735

              THEORETICAL ROCKET PERFORMANCE ASSUMING EQUILIBRIUM

           COMPOSITION DURING EXPANSION FROM INFINITE AREA COMBUSTOR

 Pin =   250.0 PSIA
 CASE = M51-0__________

             REACTANT                    WT FRACTION      ENERGY      TEMP
                                          (SEE NOTE)      CAL/MOL       K  
 FUEL        paraffin                     1.0000000   -444694.073    298.150
 OXIDANT     N2O                          1.0000000     19627.747    300.000

 O/F=    7.00000  %FUEL= 12.500000  R,EQ.RATIO= 1.305504  PHI,EQ.RATIO= 1.305504

                 CHAMBER   THROAT
 Pinf/P            1.0000   1.7407
 P, ATM            17.011   9.7726
 T, K             3266.76  3076.35
 RHO, G/CC       1.6573-3 1.0231-3
 H, CAL/G          334.72   201.77
 U, CAL/G          86.148  -29.554
 G, CAL/G        -7567.14 -7239.50
 S, CAL/(G)(K)     2.4189   2.4189

 M, (1/n)          26.116   26.427
 (dLV/dLP)t      -1.02001 -1.01546
 (dLV/dLT)p        1.3943   1.3257
 Cp, CAL/(G)(K)    0.9868   0.9085
 GAMMAs            1.1493   1.1495
 SON VEL,M/SEC     1093.3   1054.8
 MACH NUMBER        0.000    1.000

 PERFORMANCE PARAMETERS

 Ae/At                      1.0000
 CSTAR, FT/SEC              5240.6
 CF                         0.6603
 Ivac,LB-SEC/LB              201.1
 Isp, LB-SEC/LB              107.6

 MASS FRACTIONS

 *CO              0.17200  0.16194
 *CO2             0.13062  0.14643
 *H               0.00061  0.00045
 HNO              0.00001  0.00000
 HO2              0.00002  0.00001
 *H2              0.00290  0.00269
 H2O              0.09910  0.10458
 *N               0.00001  0.00000
 *NO              0.01223  0.00837
 NO2              0.00001  0.00000
 *N2              0.55120  0.55301
 *O               0.00364  0.00223
 *OH              0.01683  0.01263
 *O2              0.01082  0.00764

  * THERMODYNAMIC PROPERTIES FITTED TO 20000.K

    PRODUCTS WHICH WERE CONSIDERED BUT WHOSE MASS FRACTIONS
    WERE LESS THAN 5.000000E-06 FOR ALL ASSIGNED CONDITIONS

 *C              *CH             CH2             CH3             CH2OH          
 CH3O            CH4             CH3OH           CH3OOH          *CN            
 CNN             COOH            *C2             C2H             C2H2,acetylene 
 C2H2,vinylidene CH2CO,ketene    O(CH)2O         HO(CO)2OH       C2H3,vinyl     
 CH3CN           CH3CO,acetyl    C2H4            C2H4O,ethylen-o CH3CHO,ethanal 
 CH3COOH         OHCH2COOH       C2H5            C2H6            CH3N2CH3       
 C2H5OH          CH3OCH3         CH3O2CH3        CCN             CNC            
 OCCN            C2N2            C2O             *C3             C3H3,1-propynl 
 C3H3,2-propynl  C3H4,allene     C3H4,propyne    C3H4,cyclo-     C3H5,allyl     
 C3H6,propylene  C3H6,cyclo-     C3H6O,propylox  C3H6O,acetone   C3H6O,propanal 
 C3H7,n-propyl   C3H7,i-propyl   C3H8            C3H8O,1propanol C3H8O,2propanol
 CNCOCN          C3O2            *C4             C4H2,butadiyne  C4H4,1,3-cyclo-
 C4H6,butadiene  C4H6,1butyne    C4H6,2butyne    C4H6,cyclo-     C4H8,1-butene  
 C4H8,cis2-buten C4H8,tr2-butene C4H8,isobutene  C4H8,cyclo-     (CH3COOH)2     
 C4H9,n-butyl    C4H9,i-butyl    C4H9,s-butyl    C4H9,t-butyl    C4H10,n-butane 
 C4H10,isobutane C4N2            *C5             C5H6,1,3cyclo-  C5H8,cyclo-    
 C5H10,1-pentene C5H10,cyclo-    C5H11,pentyl    C5H11,t-pentyl  C5H12,n-pentane
 C5H12,i-pentane CH3C(CH3)2CH3   C6H2            C6H5,phenyl     C6H5O,phenoxy  
 C6H6            C6H5OH,phenol   C6H10,cyclo-    C6H12,1-hexene  C6H12,cyclo-   
 C6H13,n-hexyl   C6H14,n-hexane  C7H7,benzyl     C7H8            C7H8O,cresol-mx
 C7H14,1-heptene C7H15,n-heptyl  C7H16,n-heptane C7H16,2-methylh C8H8,styrene   
 C8H10,ethylbenz C8H16,1-octene  C8H17,n-octyl   C8H18,n-octane  C8H18,isooctane
 C9H19,n-nonyl   C10H8,naphthale C10H21,n-decyl  C11H21          C12H9,o-bipheny
 C12H10,biphenyl HCN             HCO             HCCN            HCCO           
 HNC             HNCO            HNO2            HNO3            HCHO,formaldehy
 HCOOH           H2O2            (HCOOH)2        NCO             *NH            
 NH2             NH3             NH2OH           NO3             N2O            
 NCN             N2H2            NH2NO2          N2H4            N2O3           
 N2O4            N2O5            N3              N3H             O3             
 THDCPD,endo     THDCPD,exo      N2H4(L)         C(gr)           CH3OH(L)       
 C2H5OH(L)       C6H14(L),n-hexa C6H5NH2(L)      C6H6(L)         H2O(cr)        
 H2O(L)         

 NOTE. WEIGHT FRACTION OF FUEL IN TOTAL FUELS AND OF OXIDANT IN TOTAL OXIDANTS

 POINT ITN      T            C           H           N           O 

 Pinf/Pt = 1.740990
 Pinf/Pt = 1.741266

              THEORETICAL ROCKET PERFORMANCE ASSUMING EQUILIBRIUM

           COMPOSITION DURING EXPANSION FROM INFINITE AREA COMBUSTOR

 Pin =   275.0 PSIA
 CASE = M51-0__________

             REACTANT                    WT FRACTION      ENERGY      TEMP
                                          (SEE NOTE)      CAL/MOL       K  
 FUEL        paraffin                     1.0000000   -444694.073    298.150
 OXIDANT     N2O                          1.0000000     19627.747    300.000

 O/F=    7.00000  %FUEL= 12.500000  R,EQ.RATIO= 1.305504  PHI,EQ.RATIO= 1.305504

                 CHAMBER   THROAT
 Pinf/P            1.0000   1.7413
 P, ATM            18.713   10.747
 T, K             3276.21  3083.83
 RHO, G/CC       1.8192-3 1.1231-3
 H, CAL/G          334.72   201.44
 U, CAL/G          85.619  -30.295
 G, CAL/G        -7566.24 -7235.58
 S, CAL/(G)(K)     2.4116   2.4116

 M, (1/n)          26.136   26.445
 (dLV/dLP)t      -1.01967 -1.01514
 (dLV/dLT)p        1.3871   1.3186
 Cp, CAL/(G)(K)    0.9746   0.8961
 GAMMAs            1.1500   1.1503
 SON VEL,M/SEC     1094.8   1056.1
 MACH NUMBER        0.000    1.000

 PERFORMANCE PARAMETERS

 Ae/At                      1.0000
 CSTAR, FT/SEC              5244.9
 CF                         0.6606
 Ivac,LB-SEC/LB              201.3
 Isp, LB-SEC/LB              107.7

 MASS FRACTIONS

 *CO              0.17160  0.16155
 *CO2             0.13125  0.14704
 *H               0.00059  0.00044
 HNO              0.00001  0.00000
 HO2              0.00002  0.00001
 *H2              0.00289  0.00268
 H2O              0.09948  0.10492
 *N               0.00001  0.00000
 *NO              0.01220  0.00831
 NO2              0.00001  0.00000
 *N2              0.55121  0.55303
 *O               0.00352  0.00215
 *OH              0.01665  0.01244
 *O2              0.01056  0.00741

  * THERMODYNAMIC PROPERTIES FITTED TO 20000.K

    PRODUCTS WHICH WERE CONSIDERED BUT WHOSE MASS FRACTIONS
    WERE LESS THAN 5.000000E-06 FOR ALL ASSIGNED CONDITIONS

 *C              *CH             CH2             CH3             CH2OH          
 CH3O            CH4             CH3OH           CH3OOH          *CN            
 CNN             COOH            *C2             C2H             C2H2,acetylene 
 C2H2,vinylidene CH2CO,ketene    O(CH)2O         HO(CO)2OH       C2H3,vinyl     
 CH3CN           CH3CO,acetyl    C2H4            C2H4O,ethylen-o CH3CHO,ethanal 
 CH3COOH         OHCH2COOH       C2H5            C2H6            CH3N2CH3       
 C2H5OH          CH3OCH3         CH3O2CH3        CCN             CNC            
 OCCN            C2N2            C2O             *C3             C3H3,1-propynl 
 C3H3,2-propynl  C3H4,allene     C3H4,propyne    C3H4,cyclo-     C3H5,allyl     
 C3H6,propylene  C3H6,cyclo-     C3H6O,propylox  C3H6O,acetone   C3H6O,propanal 
 C3H7,n-propyl   C3H7,i-propyl   C3H8            C3H8O,1propanol C3H8O,2propanol
 CNCOCN          C3O2            *C4             C4H2,butadiyne  C4H4,1,3-cyclo-
 C4H6,butadiene  C4H6,1butyne    C4H6,2butyne    C4H6,cyclo-     C4H8,1-butene  
 C4H8,cis2-buten C4H8,tr2-butene C4H8,isobutene  C4H8,cyclo-     (CH3COOH)2     
 C4H9,n-butyl    C4H9,i-butyl    C4H9,s-butyl    C4H9,t-butyl    C4H10,n-butane 
 C4H10,isobutane C4N2            *C5             C5H6,1,3cyclo-  C5H8,cyclo-    
 C5H10,1-pentene C5H10,cyclo-    C5H11,pentyl    C5H11,t-pentyl  C5H12,n-pentane
 C5H12,i-pentane CH3C(CH3)2CH3   C6H2            C6H5,phenyl     C6H5O,phenoxy  
 C6H6            C6H5OH,phenol   C6H10,cyclo-    C6H12,1-hexene  C6H12,cyclo-   
 C6H13,n-hexyl   C6H14,n-hexane  C7H7,benzyl     C7H8            C7H8O,cresol-mx
 C7H14,1-heptene C7H15,n-heptyl  C7H16,n-heptane C7H16,2-methylh C8H8,styrene   
 C8H10,ethylbenz C8H16,1-octene  C8H17,n-octyl   C8H18,n-octane  C8H18,isooctane
 C9H19,n-nonyl   C10H8,naphthale C10H21,n-decyl  C11H21          C12H9,o-bipheny
 C12H10,biphenyl HCN             HCO             HCCN            HCCO           
 HNC             HNCO            HNO2            HNO3            HCHO,formaldehy
 HCOOH           H2O2            (HCOOH)2        NCO             *NH            
 NH2             NH3             NH2OH           NO3             N2O            
 NCN             N2H2            NH2NO2          N2H4            N2O3           
 N2O4            N2O5            N3              N3H             O3             
 THDCPD,endo     THDCPD,exo      N2H4(L)         C(gr)           CH3OH(L)       
 C2H5OH(L)       C6H14(L),n-hexa C6H5NH2(L)      C6H6(L)         H2O(cr)        
 H2O(L)         

 NOTE. WEIGHT FRACTION OF FUEL IN TOTAL FUELS AND OF OXIDANT IN TOTAL OXIDANTS

 POINT ITN      T            C           H           N           O 

 Pinf/Pt = 1.741393
 Pinf/Pt = 1.741755

              THEORETICAL ROCKET PERFORMANCE ASSUMING EQUILIBRIUM

           COMPOSITION DURING EXPANSION FROM INFINITE AREA COMBUSTOR

 Pin =   300.0 PSIA
 CASE = M51-0__________

             REACTANT                    WT FRACTION      ENERGY      TEMP
                                          (SEE NOTE)      CAL/MOL       K  
 FUEL        paraffin                     1.0000000   -444694.073    298.150
 OXIDANT     N2O                          1.0000000     19627.747    300.000

 O/F=    7.00000  %FUEL= 12.500000  R,EQ.RATIO= 1.305504  PHI,EQ.RATIO= 1.305504

                 CHAMBER   THROAT
 Pinf/P            1.0000   1.7418
 P, ATM            20.414   11.720
 T, K             3284.81  3090.61
 RHO, G/CC       1.9808-3 1.2229-3
 H, CAL/G          334.72   201.14
 U, CAL/G          85.139  -30.966
 G, CAL/G        -7565.24 -7231.80
 S, CAL/(G)(K)     2.4050   2.4050

 M, (1/n)          26.154   26.461
 (dLV/dLP)t      -1.01937 -1.01485
 (dLV/dLT)p        1.3806   1.3122
 Cp, CAL/(G)(K)    0.9635   0.8850
 GAMMAs            1.1506   1.1511
 SON VEL,M/SEC     1096.2   1057.3
 MACH NUMBER        0.000    1.000

 PERFORMANCE PARAMETERS

 Ae/At                      1.0000
 CSTAR, FT/SEC              5248.7
 CF                         0.6609
 Ivac,LB-SEC/LB              201.5
 Isp, LB-SEC/LB              107.8

 MASS FRACTIONS

 *CO              0.17123  0.16120
 *CO2             0.13184  0.14760
 *H               0.00058  0.00043
 HNO              0.00001  0.00000
 HO2              0.00002  0.00001
 *H2              0.00287  0.00266
 H2O              0.09982  0.10523
 *N               0.00001  0.00000
 *NO              0.01217  0.00826
 NO2              0.00001  0.00000
 *N2              0.55123  0.55306
 *O               0.00341  0.00207
 *OH              0.01647  0.01227
 *O2              0.01033  0.00720

  * THERMODYNAMIC PROPERTIES FITTED TO 20000.K

    PRODUCTS WHICH WERE CONSIDERED BUT WHOSE MASS FRACTIONS
    WERE LESS THAN 5.000000E-06 FOR ALL ASSIGNED CONDITIONS

 *C              *CH             CH2             CH3             CH2OH          
 CH3O            CH4             CH3OH           CH3OOH          *CN            
 CNN             COOH            *C2             C2H             C2H2,acetylene 
 C2H2,vinylidene CH2CO,ketene    O(CH)2O         HO(CO)2OH       C2H3,vinyl     
 CH3CN           CH3CO,acetyl    C2H4            C2H4O,ethylen-o CH3CHO,ethanal 
 CH3COOH         OHCH2COOH       C2H5            C2H6            CH3N2CH3       
 C2H5OH          CH3OCH3         CH3O2CH3        CCN             CNC            
 OCCN            C2N2            C2O             *C3             C3H3,1-propynl 
 C3H3,2-propynl  C3H4,allene     C3H4,propyne    C3H4,cyclo-     C3H5,allyl     
 C3H6,propylene  C3H6,cyclo-     C3H6O,propylox  C3H6O,acetone   C3H6O,propanal 
 C3H7,n-propyl   C3H7,i-propyl   C3H8            C3H8O,1propanol C3H8O,2propanol
 CNCOCN          C3O2            *C4             C4H2,butadiyne  C4H4,1,3-cyclo-
 C4H6,butadiene  C4H6,1butyne    C4H6,2butyne    C4H6,cyclo-     C4H8,1-butene  
 C4H8,cis2-buten C4H8,tr2-butene C4H8,isobutene  C4H8,cyclo-     (CH3COOH)2     
 C4H9,n-butyl    C4H9,i-butyl    C4H9,s-butyl    C4H9,t-butyl    C4H10,n-butane 
 C4H10,isobutane C4N2            *C5             C5H6,1,3cyclo-  C5H8,cyclo-    
 C5H10,1-pentene C5H10,cyclo-    C5H11,pentyl    C5H11,t-pentyl  C5H12,n-pentane
 C5H12,i-pentane CH3C(CH3)2CH3   C6H2            C6H5,phenyl     C6H5O,phenoxy  
 C6H6            C6H5OH,phenol   C6H10,cyclo-    C6H12,1-hexene  C6H12,cyclo-   
 C6H13,n-hexyl   C6H14,n-hexane  C7H7,benzyl     C7H8            C7H8O,cresol-mx
 C7H14,1-heptene C7H15,n-heptyl  C7H16,n-heptane C7H16,2-methylh C8H8,styrene   
 C8H10,ethylbenz C8H16,1-octene  C8H17,n-octyl   C8H18,n-octane  C8H18,isooctane
 C9H19,n-nonyl   C10H8,naphthale C10H21,n-decyl  C11H21          C12H9,o-bipheny
 C12H10,biphenyl HCN             HCO             HCCN            HCCO           
 HNC             HNCO            HNO2            HNO3            HCHO,formaldehy
 HCOOH           H2O2            (HCOOH)2        NCO             *NH            
 NH2             NH3             NH2OH           NO3             N2O            
 NCN             N2H2            NH2NO2          N2H4            N2O3           
 N2O4            N2O5            N3              N3H             O3             
 THDCPD,endo     THDCPD,exo      N2H4(L)         C(gr)           CH3OH(L)       
 C2H5OH(L)       C6H14(L),n-hexa C6H5NH2(L)      C6H6(L)         H2O(cr)        
 H2O(L)         

 NOTE. WEIGHT FRACTION OF FUEL IN TOTAL FUELS AND OF OXIDANT IN TOTAL OXIDANTS

 POINT ITN      T            C           H           N           O 

 Pinf/Pt = 1.741766
 Pinf/Pt = 1.742210

              THEORETICAL ROCKET PERFORMANCE ASSUMING EQUILIBRIUM

           COMPOSITION DURING EXPANSION FROM INFINITE AREA COMBUSTOR

 Pin =   325.0 PSIA
 CASE = M51-0__________

             REACTANT                    WT FRACTION      ENERGY      TEMP
                                          (SEE NOTE)      CAL/MOL       K  
 FUEL        paraffin                     1.0000000   -444694.073    298.150
 OXIDANT     N2O                          1.0000000     19627.747    300.000

 O/F=    7.00000  %FUEL= 12.500000  R,EQ.RATIO= 1.305504  PHI,EQ.RATIO= 1.305504

                 CHAMBER   THROAT
 Pinf/P            1.0000   1.7422
 P, ATM            22.115   12.694
 T, K             3292.68  3096.81
 RHO, G/CC       2.1420-3 1.3225-3
 H, CAL/G          334.72   200.86
 U, CAL/G          84.699  -31.581
 G, CAL/G        -7564.17 -7228.15
 S, CAL/(G)(K)     2.3989   2.3989

 M, (1/n)          26.171   26.476
 (dLV/dLP)t      -1.01910 -1.01458
 (dLV/dLT)p        1.3746   1.3063
 Cp, CAL/(G)(K)    0.9535   0.8749
 GAMMAs            1.1513   1.1518
 SON VEL,M/SEC     1097.4   1058.4
 MACH NUMBER        0.000    1.000

 PERFORMANCE PARAMETERS

 Ae/At                     1.00000
 CSTAR, FT/SEC              5252.2
 CF                         0.6611
 Ivac,LB-SEC/LB              201.6
 Isp, LB-SEC/LB              107.9

 MASS FRACTIONS

 *CO              0.17088  0.16087
 *CO2             0.13237  0.14811
 *H               0.00056  0.00042
 HNO              0.00001  0.00000
 HO2              0.00002  0.00001
 *H2              0.00286  0.00265
 H2O              0.10014  0.10551
 *N               0.00001  0.00000
 *NO              0.01214  0.00821
 NO2              0.00001  0.00000
 *N2              0.55124  0.55308
 *O               0.00332  0.00200
 *OH              0.01631  0.01211
 *O2              0.01011  0.00701

  * THERMODYNAMIC PROPERTIES FITTED TO 20000.K

    PRODUCTS WHICH WERE CONSIDERED BUT WHOSE MASS FRACTIONS
    WERE LESS THAN 5.000000E-06 FOR ALL ASSIGNED CONDITIONS

 *C              *CH             CH2             CH3             CH2OH          
 CH3O            CH4             CH3OH           CH3OOH          *CN            
 CNN             COOH            *C2             C2H             C2H2,acetylene 
 C2H2,vinylidene CH2CO,ketene    O(CH)2O         HO(CO)2OH       C2H3,vinyl     
 CH3CN           CH3CO,acetyl    C2H4            C2H4O,ethylen-o CH3CHO,ethanal 
 CH3COOH         OHCH2COOH       C2H5            C2H6            CH3N2CH3       
 C2H5OH          CH3OCH3         CH3O2CH3        CCN             CNC            
 OCCN            C2N2            C2O             *C3             C3H3,1-propynl 
 C3H3,2-propynl  C3H4,allene     C3H4,propyne    C3H4,cyclo-     C3H5,allyl     
 C3H6,propylene  C3H6,cyclo-     C3H6O,propylox  C3H6O,acetone   C3H6O,propanal 
 C3H7,n-propyl   C3H7,i-propyl   C3H8            C3H8O,1propanol C3H8O,2propanol
 CNCOCN          C3O2            *C4             C4H2,butadiyne  C4H4,1,3-cyclo-
 C4H6,butadiene  C4H6,1butyne    C4H6,2butyne    C4H6,cyclo-     C4H8,1-butene  
 C4H8,cis2-buten C4H8,tr2-butene C4H8,isobutene  C4H8,cyclo-     (CH3COOH)2     
 C4H9,n-butyl    C4H9,i-butyl    C4H9,s-butyl    C4H9,t-butyl    C4H10,n-butane 
 C4H10,isobutane C4N2            *C5             C5H6,1,3cyclo-  C5H8,cyclo-    
 C5H10,1-pentene C5H10,cyclo-    C5H11,pentyl    C5H11,t-pentyl  C5H12,n-pentane
 C5H12,i-pentane CH3C(CH3)2CH3   C6H2            C6H5,phenyl     C6H5O,phenoxy  
 C6H6            C6H5OH,phenol   C6H10,cyclo-    C6H12,1-hexene  C6H12,cyclo-   
 C6H13,n-hexyl   C6H14,n-hexane  C7H7,benzyl     C7H8            C7H8O,cresol-mx
 C7H14,1-heptene C7H15,n-heptyl  C7H16,n-heptane C7H16,2-methylh C8H8,styrene   
 C8H10,ethylbenz C8H16,1-octene  C8H17,n-octyl   C8H18,n-octane  C8H18,isooctane
 C9H19,n-nonyl   C10H8,naphthale C10H21,n-decyl  C11H21          C12H9,o-bipheny
 C12H10,biphenyl HCN             HCO             HCCN            HCCO           
 HNC             HNCO            HNO2            HNO3            HCHO,formaldehy
 HCOOH           H2O2            (HCOOH)2        NCO             *NH            
 NH2             NH3             NH2OH           NO3             N2O            
 NCN             N2H2            NH2NO2          N2H4            N2O3           
 N2O4            N2O5            N3              N3H             O3             
 THDCPD,endo     THDCPD,exo      N2H4(L)         C(gr)           CH3OH(L)       
 C2H5OH(L)       C6H14(L),n-hexa C6H5NH2(L)      C6H6(L)         H2O(cr)        
 H2O(L)         

 NOTE. WEIGHT FRACTION OF FUEL IN TOTAL FUELS AND OF OXIDANT IN TOTAL OXIDANTS

 POINT ITN      T            C           H           N           O 

 Pinf/Pt = 1.742114
 Pinf/Pt = 1.742635

              THEORETICAL ROCKET PERFORMANCE ASSUMING EQUILIBRIUM

           COMPOSITION DURING EXPANSION FROM INFINITE AREA COMBUSTOR

 Pin =   350.0 PSIA
 CASE = M51-0__________

             REACTANT                    WT FRACTION      ENERGY      TEMP
                                          (SEE NOTE)      CAL/MOL       K  
 FUEL        paraffin                     1.0000000   -444694.073    298.150
 OXIDANT     N2O                          1.0000000     19627.747    300.000

 O/F=    7.00000  %FUEL= 12.500000  R,EQ.RATIO= 1.305504  PHI,EQ.RATIO= 1.305504

                 CHAMBER   THROAT
 Pinf/P            1.0000   1.7426
 P, ATM            23.816   13.667
 T, K             3299.95  3102.51
 RHO, G/CC       2.3031-3 1.4220-3
 H, CAL/G          334.72   200.60
 U, CAL/G          84.294  -32.147
 G, CAL/G        -7563.04 -7224.62
 S, CAL/(G)(K)     2.3933   2.3933

 M, (1/n)          26.186   26.489
 (dLV/dLP)t      -1.01884 -1.01433
 (dLV/dLT)p        1.3691   1.3009
 Cp, CAL/(G)(K)    0.9443   0.8657
 GAMMAs            1.1518   1.1525
 SON VEL,M/SEC     1098.6   1059.4
 MACH NUMBER        0.000    1.000

 PERFORMANCE PARAMETERS

 Ae/At                     1.00000
 CSTAR, FT/SEC              5255.5
 CF                         0.6614
 Ivac,LB-SEC/LB              201.8
 Isp, LB-SEC/LB              108.0

 MASS FRACTIONS

 *CO              0.17056  0.16057
 *CO2             0.13288  0.14859
[...]
 C7H14,1-heptene C7H15,n-heptyl  C7H16,n-heptane C7H16,2-methylh C8H8,styrene   
 C8H10,ethylbenz C8H16,1-octene  C8H17,n-octyl   C8H18,n-octane  C8H18,isooctane
 C9H19,n-nonyl   C10H8,naphthale C10H21,n-decyl  C11H21          C12H9,o-bipheny
 C12H10,biphenyl HCN             HCO             HCCN            HCCO           
 HNC             HNCO            HNO2            HNO3            HCHO,formaldehy
 HCOOH           H2O2            (HCOOH)2        NCO             *NH            
 NH2             NH3             NH2OH           NO3             NCN            
 N2H2            NH2NO2          N2H4            N2O3            N2O4           
 N2O5            N3              N3H             O3              THDCPD,endo    
 THDCPD,exo      N2H4(L)         C(gr)           CH3OH(L)        C2H5OH(L)      
 C6H14(L),n-hexa C6H5NH2(L)      C6H6(L)         H2O(cr)         H2O(L)         

 NOTE. WEIGHT FRACTION OF FUEL IN TOTAL FUELS AND OF OXIDANT IN TOTAL OXIDANTS

 POINT ITN      T            C           H           N           O 

 Pinf/Pt = 1.736997
 Pinf/Pt = 1.734954

              THEORETICAL ROCKET PERFORMANCE ASSUMING EQUILIBRIUM

           COMPOSITION DURING EXPANSION FROM INFINITE AREA COMBUSTOR

 Pin =   325.0 PSIA
 CASE = M51-0__________

             REACTANT                    WT FRACTION      ENERGY      TEMP
                                          (SEE NOTE)      CAL/MOL       K  
 FUEL        paraffin                     1.0000000   -444694.073    298.150
 OXIDANT     N2O                          1.0000000     19627.747    300.000

 O/F=   10.00000  %FUEL=  9.090909  R,EQ.RATIO= 0.913853  PHI,EQ.RATIO= 0.913853

                 CHAMBER   THROAT
 Pinf/P            1.0000   1.7350
 P, ATM            22.115   12.747
 T, K             3255.49  3076.80
 RHO, G/CC       2.2891-3 1.4128-3
 H, CAL/G          365.06   240.47
 U, CAL/G          131.09   21.985
 G, CAL/G        -7114.17 -6828.23
 S, CAL/(G)(K)     2.2974   2.2974

 M, (1/n)          27.651   27.984
 (dLV/dLP)t      -1.02120 -1.01823
 (dLV/dLT)p        1.4221   1.3863
 Cp, CAL/(G)(K)    0.9910   0.9654
 GAMMAs            1.1435   1.1404
 SON VEL,M/SEC     1058.0   1021.0
 MACH NUMBER        0.000    1.000

 PERFORMANCE PARAMETERS

 Ae/At                      1.0000
 CSTAR, FT/SEC              5096.2
 CF                         0.6573
 Ivac,LB-SEC/LB              195.4
 Isp, LB-SEC/LB              104.1

 MASS FRACTIONS

 *CO              0.08072  0.06795
 *CO2             0.16472  0.18478
 *H               0.00028  0.00020
 HNO              0.00001  0.00000
 HO2              0.00006  0.00004
 *H2              0.00088  0.00072
 H2O              0.08025  0.08425
 *N               0.00001  0.00000
 *NO              0.02710  0.02176
 NO2              0.00005  0.00003
 *N2              0.56594  0.56845
 N2O              0.00001  0.00001
 *O               0.00664  0.00488
 *OH              0.02038  0.01675
 *O2              0.05296  0.05018

  * THERMODYNAMIC PROPERTIES FITTED TO 20000.K

    PRODUCTS WHICH WERE CONSIDERED BUT WHOSE MASS FRACTIONS
    WERE LESS THAN 5.000000E-06 FOR ALL ASSIGNED CONDITIONS

 *C              *CH             CH2             CH3             CH2OH          
 CH3O            CH4             CH3OH           CH3OOH          *CN            
 CNN             COOH            *C2             C2H             C2H2,acetylene 
 C2H2,vinylidene CH2CO,ketene    O(CH)2O         HO(CO)2OH       C2H3,vinyl     
 CH3CN           CH3CO,acetyl    C2H4            C2H4O,ethylen-o CH3CHO,ethanal 
 CH3COOH         OHCH2COOH       C2H5            C2H6            CH3N2CH3       
 C2H5OH          CH3OCH3         CH3O2CH3        CCN             CNC            
 OCCN            C2N2            C2O             *C3             C3H3,1-propynl 
 C3H3,2-propynl  C3H4,allene     C3H4,propyne    C3H4,cyclo-     C3H5,allyl     
 C3H6,propylene  C3H6,cyclo-     C3H6O,propylox  C3H6O,acetone   C3H6O,propanal 
 C3H7,n-propyl   C3H7,i-propyl   C3H8            C3H8O,1propanol C3H8O,2propanol
 CNCOCN          C3O2            *C4             C4H2,butadiyne  C4H4,1,3-cyclo-
 C4H6,butadiene  C4H6,1butyne    C4H6,2butyne    C4H6,cyclo-     C4H8,1-butene  
 C4H8,cis2-buten C4H8,tr2-butene C4H8,isobutene  C4H8,cyclo-     (CH3COOH)2     
 C4H9,n-butyl    C4H9,i-butyl    C4H9,s-butyl    C4H9,t-butyl    C4H10,n-butane 
 C4H10,isobutane C4N2            *C5             C5H6,1,3cyclo-  C5H8,cyclo-    
 C5H10,1-pentene C5H10,cyclo-    C5H11,pentyl    C5H11,t-pentyl  C5H12,n-pentane
 C5H12,i-pentane CH3C(CH3)2CH3   C6H2            C6H5,phenyl     C6H5O,phenoxy  
 C6H6            C6H5OH,phenol   C6H10,cyclo-    C6H12,1-hexene  C6H12,cyclo-   
 C6H13,n-hexyl   C6H14,n-hexane  C7H7,benzyl     C7H8            C7H8O,cresol-mx
 C7H14,1-heptene C7H15,n-heptyl  C7H16,n-heptane C7H16,2-methylh C8H8,styrene   
 C8H10,ethylbenz C8H16,1-octene  C8H17,n-octyl   C8H18,n-octane  C8H18,isooctane
 C9H19,n-nonyl   C10H8,naphthale C10H21,n-decyl  C11H21          C12H9,o-bipheny
 C12H10,biphenyl HCN             HCO             HCCN            HCCO           
 HNC             HNCO            HNO2            HNO3            HCHO,formaldehy
 HCOOH           H2O2            (HCOOH)2        NCO             *NH            
 NH2             NH3             NH2OH           NO3             NCN            
 N2H2            NH2NO2          N2H4            N2O3            N2O4           
 N2O5            N3              N3H             O3              THDCPD,endo    
 THDCPD,exo      N2H4(L)         C(gr)           CH3OH(L)        C2H5OH(L)      
 C6H14(L),n-hexa C6H5NH2(L)      C6H6(L)         H2O(cr)         H2O(L)         

 NOTE. WEIGHT FRACTION OF FUEL IN TOTAL FUELS AND OF OXIDANT IN TOTAL OXIDANTS

 POINT ITN      T            C           H           N           O 

 Pinf/Pt = 1.737250
 Pinf/Pt = 1.735218

              THEORETICAL ROCKET PERFORMANCE ASSUMING EQUILIBRIUM

           COMPOSITION DURING EXPANSION FROM INFINITE AREA COMBUSTOR

 Pin =   350.0 PSIA
 CASE = M51-0__________

             REACTANT                    WT FRACTION      ENERGY      TEMP
                                          (SEE NOTE)      CAL/MOL       K  
 FUEL        paraffin                     1.0000000   -444694.073    298.150
 OXIDANT     N2O                          1.0000000     19627.747    300.000

 O/F=   10.00000  %FUEL=  9.090909  R,EQ.RATIO= 0.913853  PHI,EQ.RATIO= 0.913853

                 CHAMBER   THROAT
 Pinf/P            1.0000   1.7352
 P, ATM            23.816   13.725
 T, K             3262.87  3083.02
 RHO, G/CC       2.4611-3 1.5191-3
 H, CAL/G          365.06   240.25
 U, CAL/G          130.71   21.439
 G, CAL/G        -7113.75 -6826.34
 S, CAL/(G)(K)     2.2921   2.2921

 M, (1/n)          27.668   28.000
 (dLV/dLP)t      -1.02102 -1.01805
 (dLV/dLT)p        1.4177   1.3821
 Cp, CAL/(G)(K)    0.9834   0.9579
 GAMMAs            1.1439   1.1409
 SON VEL,M/SEC     1059.1   1022.0
 MACH NUMBER        0.000    1.000

 PERFORMANCE PARAMETERS

 Ae/At                      1.0000
 CSTAR, FT/SEC              5099.8
 CF                         0.6575
 Ivac,LB-SEC/LB              195.6
 Isp, LB-SEC/LB              104.2

 MASS FRACTIONS

 *CO              0.08019  0.06741
 *CO2             0.16556  0.18563
 *H               0.00027  0.00019
 HNO              0.00001  0.00000
 HO2              0.00006  0.00004
 *H2              0.00087  0.00071
 H2O              0.08045  0.08443
 *N               0.00001  0.00000
 *NO              0.02722  0.02184
 NO2              0.00005  0.00003
 *N2              0.56588  0.56841
 N2O              0.00001  0.00001
 *O               0.00651  0.00478
 *OH              0.02027  0.01664
 *O2              0.05264  0.04986

  * THERMODYNAMIC PROPERTIES FITTED TO 20000.K

    PRODUCTS WHICH WERE CONSIDERED BUT WHOSE MASS FRACTIONS
    WERE LESS THAN 5.000000E-06 FOR ALL ASSIGNED CONDITIONS

 *C              *CH             CH2             CH3             CH2OH          
 CH3O            CH4             CH3OH           CH3OOH          *CN            
 CNN             COOH            *C2             C2H             C2H2,acetylene 
 C2H2,vinylidene CH2CO,ketene    O(CH)2O         HO(CO)2OH       C2H3,vinyl     
 CH3CN           CH3CO,acetyl    C2H4            C2H4O,ethylen-o CH3CHO,ethanal 
 CH3COOH         OHCH2COOH       C2H5            C2H6            CH3N2CH3       
 C2H5OH          CH3OCH3         CH3O2CH3        CCN             CNC            
 OCCN            C2N2            C2O             *C3             C3H3,1-propynl 
 C3H3,2-propynl  C3H4,allene     C3H4,propyne    C3H4,cyclo-     C3H5,allyl     
 C3H6,propylene  C3H6,cyclo-     C3H6O,propylox  C3H6O,acetone   C3H6O,propanal 
 C3H7,n-propyl   C3H7,i-propyl   C3H8            C3H8O,1propanol C3H8O,2propanol
 CNCOCN          C3O2            *C4             C4H2,butadiyne  C4H4,1,3-cyclo-
 C4H6,butadiene  C4H6,1butyne    C4H6,2butyne    C4H6,cyclo-     C4H8,1-butene  
 C4H8,cis2-buten C4H8,tr2-butene C4H8,isobutene  C4H8,cyclo-     (CH3COOH)2     
 C4H9,n-butyl    C4H9,i-butyl    C4H9,s-butyl    C4H9,t-butyl    C4H10,n-butane 
 C4H10,isobutane C4N2            *C5             C5H6,1,3cyclo-  C5H8,cyclo-    
 C5H10,1-pentene C5H10,cyclo-    C5H11,pentyl    C5H11,t-pentyl  C5H12,n-pentane
 C5H12,i-pentane CH3C(CH3)2CH3   C6H2            C6H5,phenyl     C6H5O,phenoxy  
 C6H6            C6H5OH,phenol   C6H10,cyclo-    C6H12,1-hexene  C6H12,cyclo-   
 C6H13,n-hexyl   C6H14,n-hexane  C7H7,benzyl     C7H8            C7H8O,cresol-mx
 C7H14,1-heptene C7H15,n-heptyl  C7H16,n-heptane C7H16,2-methylh C8H8,styrene   
 C8H10,ethylbenz C8H16,1-octene  C8H17,n-octyl   C8H18,n-octane  C8H18,isooctane
 C9H19,n-nonyl   C10H8,naphthale C10H21,n-decyl  C11H21          C12H9,o-bipheny
 C12H10,biphenyl HCN             HCO             HCCN            HCCO           
 HNC             HNCO            HNO2            HNO3            HCHO,formaldehy
 HCOOH           H2O2            (HCOOH)2        NCO             *NH            
 NH2             NH3             NH2OH           NO3             NCN            
 N2H2            NH2NO2          N2H4            N2O3            N2O4           
 N2O5            N3              N3H             O3              THDCPD,endo    
 THDCPD,exo      N2H4(L)         C(gr)           CH3OH(L)        C2H5OH(L)      
 C6H14(L),n-hexa C6H5NH2(L)      C6H6(L)         H2O(cr)         H2O(L)         

 NOTE. WEIGHT FRACTION OF FUEL IN TOTAL FUELS AND OF OXIDANT IN TOTAL OXIDANTS

 POINT ITN      T            C           H           N           O 

 Pinf/Pt = 1.737486
 Pinf/Pt = 1.735465

              THEORETICAL ROCKET PERFORMANCE ASSUMING EQUILIBRIUM

           COMPOSITION DURING EXPANSION FROM INFINITE AREA COMBUSTOR

 Pin =   375.0 PSIA
 CASE = M51-0__________

             REACTANT                    WT FRACTION      ENERGY      TEMP
                                          (SEE NOTE)      CAL/MOL       K  
 FUEL        paraffin                     1.0000000   -444694.073    298.150
 OXIDANT     N2O                          1.0000000     19627.747    300.000

 O/F=   10.00000  %FUEL=  9.090909  R,EQ.RATIO= 0.913853  PHI,EQ.RATIO= 0.913853

                 CHAMBER   THROAT
 Pinf/P            1.0000   1.7355
 P, ATM            25.517   14.703
 T, K             3269.73  3088.80
 RHO, G/CC       2.6328-3 1.6252-3
 H, CAL/G          365.06   240.03
 U, CAL/G          130.35   20.932
 G, CAL/G        -7113.29 -6824.51
 S, CAL/(G)(K)     2.2871   2.2871

 M, (1/n)          27.684   28.015
 (dLV/dLP)t      -1.02085 -1.01789
 (dLV/dLT)p        1.4137   1.3782
 Cp, CAL/(G)(K)    0.9764   0.9510
 GAMMAs            1.1443   1.1413
 SON VEL,M/SEC     1060.0   1022.8
 MACH NUMBER        0.000    1.000

 PERFORMANCE PARAMETERS

 Ae/At                      1.0000
 CSTAR, FT/SEC              5103.0
 CF                         0.6576
 Ivac,LB-SEC/LB              195.7
 Isp, LB-SEC/LB              104.3

 MASS FRACTIONS

 *CO              0.07969  0.06691
 *CO2             0.16634  0.18642
 *H               0.00026  0.00019
 HNO              0.00001  0.00000
 HO2              0.00006  0.00004
 *H2              0.00086  0.00070
 H2O              0.08063  0.08460
 *N               0.00001  0.00000
 *NO              0.02733  0.02192
 NO2              0.00005  0.00003
 *N2              0.56583  0.56837
 N2O              0.00001  0.00001
 *O               0.00640  0.00469
 *OH              0.02016  0.01654
 *O2              0.05235  0.04957

  * THERMODYNAMIC PROPERTIES FITTED TO 20000.K

    PRODUCTS WHICH WERE CONSIDERED BUT WHOSE MASS FRACTIONS
    WERE LESS THAN 5.000000E-06 FOR ALL ASSIGNED CONDITIONS

 *C              *CH             CH2             CH3             CH2OH          
 CH3O            CH4             CH3OH           CH3OOH          *CN            
 CNN             COOH            *C2             C2H             C2H2,acetylene 
 C2H2,vinylidene CH2CO,ketene    O(CH)2O         HO(CO)2OH       C2H3,vinyl     
 CH3CN           CH3CO,acetyl    C2H4            C2H4O,ethylen-o CH3CHO,ethanal 
 CH3COOH         OHCH2COOH       C2H5            C2H6            CH3N2CH3       
 C2H5OH          CH3OCH3         CH3O2CH3        CCN             CNC            
 OCCN            C2N2            C2O             *C3             C3H3,1-propynl 
 C3H3,2-propynl  C3H4,allene     C3H4,propyne    C3H4,cyclo-     C3H5,allyl     
 C3H6,propylene  C3H6,cyclo-     C3H6O,propylox  C3H6O,acetone   C3H6O,propanal 
 C3H7,n-propyl   C3H7,i-propyl   C3H8            C3H8O,1propanol C3H8O,2propanol
 CNCOCN          C3O2            *C4             C4H2,butadiyne  C4H4,1,3-cyclo-
 C4H6,butadiene  C4H6,1butyne    C4H6,2butyne    C4H6,cyclo-     C4H8,1-butene  
 C4H8,cis2-buten C4H8,tr2-butene C4H8,isobutene  C4H8,cyclo-     (CH3COOH)2     
 C4H9,n-butyl    C4H9,i-butyl    C4H9,s-butyl    C4H9,t-butyl    C4H10,n-butane 
 C4H10,isobutane C4N2            *C5             C5H6,1,3cyclo-  C5H8,cyclo-    
 C5H10,1-pentene C5H10,cyclo-    C5H11,pentyl    C5H11,t-pentyl  C5H12,n-pentane
 C5H12,i-pentane CH3C(CH3)2CH3   C6H2            C6H5,phenyl     C6H5O,phenoxy  
 C6H6            C6H5OH,phenol   C6H10,cyclo-    C6H12,1-hexene  C6H12,cyclo-   
 C6H13,n-hexyl   C6H14,n-hexane  C7H7,benzyl     C7H8            C7H8O,cresol-mx
 C7H14,1-heptene C7H15,n-heptyl  C7H16,n-heptane C7H16,2-methylh C8H8,styrene   
 C8H10,ethylbenz C8H16,1-octene  C8H17,n-octyl   C8H18,n-octane  C8H18,isooctane
 C9H19,n-nonyl   C10H8,naphthale C10H21,n-decyl  C11H21          C12H9,o-bipheny
 C12H10,biphenyl HCN             HCO             HCCN            HCCO           
 HNC             HNCO            HNO2            HNO3            HCHO,formaldehy
 HCOOH           H2O2            (HCOOH)2        NCO             *NH            
 NH2             NH3             NH2OH           NO3             NCN            
 N2H2            NH2NO2          N2H4            N2O3            N2O4           
 N2O5            N3              N3H             O3              THDCPD,endo    
 THDCPD,exo      N2H4(L)         C(gr)           CH3OH(L)        C2H5OH(L)      
 C6H14(L),n-hexa C6H5NH2(L)      C6H6(L)         H2O(cr)         H2O(L)         

 NOTE. WEIGHT FRACTION OF FUEL IN TOTAL FUELS AND OF OXIDANT IN TOTAL OXIDANTS

 POINT ITN      T            C           H           N           O 

 Pinf/Pt = 1.737707
 Pinf/Pt = 1.735694

              THEORETICAL ROCKET PERFORMANCE ASSUMING EQUILIBRIUM

           COMPOSITION DURING EXPANSION FROM INFINITE AREA COMBUSTOR

 Pin =   400.0 PSIA
 CASE = M51-0__________

             REACTANT                    WT FRACTION      ENERGY      TEMP
                                          (SEE NOTE)      CAL/MOL       K  
 FUEL        paraffin                     1.0000000   -444694.073    298.150
 OXIDANT     N2O                          1.0000000     19627.747    300.000

 O/F=   10.00000  %FUEL=  9.090909  R,EQ.RATIO= 0.913853  PHI,EQ.RATIO= 0.913853

                 CHAMBER   THROAT
 Pinf/P            1.0000   1.7357
 P, ATM            27.218   15.681
 T, K             3276.15  3094.20
 RHO, G/CC       2.8043-3 1.7311-3
 H, CAL/G          365.06   239.84
 U, CAL/G          130.01   20.458
 G, CAL/G        -7112.79 -6822.72
 S, CAL/(G)(K)     2.2825   2.2825

 M, (1/n)          27.698   28.029
 (dLV/dLP)t      -1.02069 -1.01774
 (dLV/dLT)p        1.4099   1.3745
 Cp, CAL/(G)(K)    0.9700   0.9447
 GAMMAs            1.1446   1.1416
 SON VEL,M/SEC     1061.0   1023.7
 MACH NUMBER        0.000    1.000

 PERFORMANCE PARAMETERS

 Ae/At                      1.0000
 CSTAR, FT/SEC              5106.1
 CF                         0.6577
 Ivac,LB-SEC/LB              195.8
 Isp, LB-SEC/LB              104.4

 MASS FRACTIONS

 *CO              0.07922  0.06643
 *CO2             0.16707  0.18717
 *H               0.00026  0.00019
 HNO              0.00001  0.00000
 HO2              0.00007  0.00004
 *H2              0.00085  0.00070
 H2O              0.08081  0.08475
 *N               0.00001  0.00000
 *NO              0.02744  0.02200
 NO2              0.00005  0.00003
 *N2              0.56578  0.56833
 N2O              0.00001  0.00001
 *O               0.00629  0.00461
 *OH              0.02006  0.01644
 *O2              0.05207  0.04929

  * THERMODYNAMIC PROPERTIES FITTED TO 20000.K

    PRODUCTS WHICH WERE CONSIDERED BUT WHOSE MASS FRACTIONS
    WERE LESS THAN 5.000000E-06 FOR ALL ASSIGNED CONDITIONS

 *C              *CH             CH2             CH3             CH2OH          
 CH3O            CH4             CH3OH           CH3OOH          *CN            
 CNN             COOH            *C2             C2H             C2H2,acetylene 
 C2H2,vinylidene CH2CO,ketene    O(CH)2O         HO(CO)2OH       C2H3,vinyl     
 CH3CN           CH3CO,acetyl    C2H4            C2H4O,ethylen-o CH3CHO,ethanal 
 CH3COOH         OHCH2COOH       C2H5            C2H6            CH3N2CH3       
 C2H5OH          CH3OCH3         CH3O2CH3        CCN             CNC            
 OCCN            C2N2            C2O             *C3             C3H3,1-propynl 
 C3H3,2-propynl  C3H4,allene     C3H4,propyne    C3H4,cyclo-     C3H5,allyl     
 C3H6,propylene  C3H6,cyclo-     C3H6O,propylox  C3H6O,acetone   C3H6O,propanal 
 C3H7,n-propyl   C3H7,i-propyl   C3H8            C3H8O,1propanol C3H8O,2propanol
 CNCOCN          C3O2            *C4             C4H2,butadiyne  C4H4,1,3-cyclo-
 C4H6,butadiene  C4H6,1butyne    C4H6,2butyne    C4H6,cyclo-     C4H8,1-butene  
 C4H8,cis2-buten C4H8,tr2-butene C4H8,isobutene  C4H8,cyclo-     (CH3COOH)2     
 C4H9,n-butyl    C4H9,i-butyl    C4H9,s-butyl    C4H9,t-butyl    C4H10,n-butane 
 C4H10,isobutane C4N2            *C5             C5H6,1,3cyclo-  C5H8,cyclo-    
 C5H10,1-pentene C5H10,cyclo-    C5H11,pentyl    C5H11,t-pentyl  C5H12,n-pentane
 C5H12,i-pentane CH3C(CH3)2CH3   C6H2            C6H5,phenyl     C6H5O,phenoxy  
 C6H6            C6H5OH,phenol   C6H10,cyclo-    C6H12,1-hexene  C6H12,cyclo-   
 C6H13,n-hexyl   C6H14,n-hexane  C7H7,benzyl     C7H8            C7H8O,cresol-mx
 C7H14,1-heptene C7H15,n-heptyl  C7H16,n-heptane C7H16,2-methylh C8H8,styrene   
 C8H10,ethylbenz C8H16,1-octene  C8H17,n-octyl   C8H18,n-octane  C8H18,isooctane
 C9H19,n-nonyl   C10H8,naphthale C10H21,n-decyl  C11H21          C12H9,o-bipheny
 C12H10,biphenyl HCN             HCO             HCCN            HCCO           
 HNC             HNCO            HNO2            HNO3            HCHO,formaldehy
 HCOOH           H2O2            (HCOOH)2        NCO             *NH            
 NH2             NH3             NH2OH           NO3             NCN            
 N2H2            NH2NO2          N2H4            N2O3            N2O4           
 N2O5            N3              N3H             O3              THDCPD,endo    
 THDCPD,exo      N2H4(L)         C(gr)           CH3OH(L)        C2H5OH(L)      
 C6H14(L),n-hexa C6H5NH2(L)      C6H6(L)         H2O(cr)         H2O(L)         

 NOTE. WEIGHT FRACTION OF FUEL IN TOTAL FUELS AND OF OXIDANT IN TOTAL OXIDANTS